100610997
 OpenBabel01182520543D

 31 31  0  0  0  0  0  0  0  0999 V2000
    2.0556    2.1019    1.1246 O   0  0  0  0  0  0  0  0  0  0  0  0
   -3.6081   -0.2593   -0.1121 N   0  0  0  0  0  0  0  0  0  0  0  0
    2.7549    0.4009   -0.3182 N   0  0  0  0  0  0  0  0  0  0  0  0
   -1.7274    0.9959   -0.8630 N   0  0  0  0  0  0  0  0  0  0  0  0
    0.3906    0.7621    0.2790 C   0  0  0  0  0  0  0  0  0  0  0  0
   -2.2428    0.1002    0.0085 C   0  0  0  0  0  0  0  0  0  0  0  0
    1.8070    1.1454    0.3915 C   0  0  0  0  0  0  0  0  0  0  0  0
   -0.1755   -0.1558    1.1567 C   0  0  0  0  0  0  0  0  0  0  0  0
   -1.5168   -0.4985    1.0257 C   0  0  0  0  0  0  0  0  0  0  0  0
   -0.4206    1.3043   -0.7046 C   0  0  0  0  0  0  0  0  0  0  0  0
    2.3803   -0.7250   -1.1711 C   0  0  0  0  0  0  0  0  0  0  0  0
   -4.1923   -1.2144    0.8030 C   0  0  0  0  0  0  0  0  0  0  0  0
   -4.4274    0.3325   -1.1463 C   0  0  0  0  0  0  0  0  0  0  0  0
    4.1792    0.6974   -0.2551 C   0  0  0  0  0  0  0  0  0  0  0  0
    2.3744   -1.9783   -0.4170 C   0  0  0  0  0  0  0  0  0  0  0  0
    2.3689   -3.0092    0.1984 C   0  0  0  0  0  0  0  0  0  0  0  0
    0.4192   -0.6069    1.9465 H   0  0  0  0  0  0  0  0  0  0  0  0
   -1.9176   -1.2169    1.7304 H   0  0  0  0  0  0  0  0  0  0  0  0
   -0.0353    2.0256   -1.4188 H   0  0  0  0  0  0  0  0  0  0  0  0
    1.4011   -0.5587   -1.6274 H   0  0  0  0  0  0  0  0  0  0  0  0
    3.0939   -0.7833   -2.0013 H   0  0  0  0  0  0  0  0  0  0  0  0
   -5.2512   -1.3873    0.5787 H   0  0  0  0  0  0  0  0  0  0  0  0
   -4.1551   -0.8538    1.8373 H   0  0  0  0  0  0  0  0  0  0  0  0
   -3.7024   -2.1919    0.7300 H   0  0  0  0  0  0  0  0  0  0  0  0
   -5.4568   -0.0406   -1.1216 H   0  0  0  0  0  0  0  0  0  0  0  0
   -4.0241    0.1037   -2.1389 H   0  0  0  0  0  0  0  0  0  0  0  0
   -4.4743    1.4207   -1.0282 H   0  0  0  0  0  0  0  0  0  0  0  0
    4.7158   -0.1861    0.1022 H   0  0  0  0  0  0  0  0  0  0  0  0
    4.3736    1.5311    0.4246 H   0  0  0  0  0  0  0  0  0  0  0  0
    4.5308    0.9659   -1.2554 H   0  0  0  0  0  0  0  0  0  0  0  0
    2.3633   -3.9230    0.7450 H   0  0  0  0  0  0  0  0  0  0  0  0
  1  7  2  0  0  0  0
  2  6  1  0  0  0  0
  2 12  1  0  0  0  0
  2 13  1  0  0  0  0
  3  7  1  0  0  0  0
  3 11  1  0  0  0  0
  3 14  1  0  0  0  0
  4  6  2  0  0  0  0
  4 10  1  0  0  0  0
  5  7  1  0  0  0  0
  5  8  1  0  0  0  0
  5 10  2  0  0  0  0
  6  9  1  0  0  0  0
  8  9  2  0  0  0  0
  8 17  1  0  0  0  0
  9 18  1  0  0  0  0
 10 19  1  0  0  0  0
 11 15  1  0  0  0  0
 11 20  1  0  0  0  0
 11 21  1  0  0  0  0
 12 22  1  0  0  0  0
 12 23  1  0  0  0  0
 12 24  1  0  0  0  0
 13 25  1  0  0  0  0
 13 26  1  0  0  0  0
 13 27  1  0  0  0  0
 14 28  1  0  0  0  0
 14 29  1  0  0  0  0
 14 30  1  0  0  0  0
 15 16  3  0  0  0  0
 16 31  1  0  0  0  0
M  END
>  <PUBCHEM_COMPOUND_CID>
100610997

>  <PUBCHEM_CONFORMER_RMSD>
0.6

>  <PUBCHEM_CONFORMER_DIVERSEORDER>
7
40
47
34
64
16
18
60
39
9
21
8
15
49
35
25
22
10
14
63
17
46
52
30
50
13
12
24
51
36
43
48
61
29
11
3
37
53
42
33
4
19
62
38
59
6
65
45
41
20
56
58
28
5
55
44
27
23
57
31
26
1
2
54
32

>  <PUBCHEM_MMFF94_PARTIAL_CHARGES>
20
1 -0.57
10 0.16
11 0.5
12 0.37
13 0.37
14 0.3
15 -0.2
16 -0.18
17 0.15
18 0.15
19 0.15
2 -0.84
3 -0.66
31 0.18
4 -0.62
5 0.09
6 0.41
7 0.54
8 -0.15
9 -0.15

>  <PUBCHEM_EFFECTIVE_ROTOR_COUNT>
4

>  <PUBCHEM_PHARMACOPHORE_FEATURES>
4
1 1 acceptor
1 16 hydrophobe
3 2 4 6 cation
6 4 5 6 8 9 10 rings

>  <PUBCHEM_HEAVY_ATOM_COUNT>
16

>  <PUBCHEM_ATOM_DEF_STEREO_COUNT>
0

>  <PUBCHEM_ATOM_UDEF_STEREO_COUNT>
0

>  <PUBCHEM_BOND_DEF_STEREO_COUNT>
0

>  <PUBCHEM_BOND_UDEF_STEREO_COUNT>
0

>  <PUBCHEM_ISOTOPIC_ATOM_COUNT>
0

>  <PUBCHEM_COMPONENT_COUNT>
1

>  <PUBCHEM_CACTVS_TAUTO_COUNT>
1

>  <PUBCHEM_CONFORMER_ID>
05FF33B500000007

>  <PUBCHEM_MMFF94_ENERGY>
56.9069

>  <PUBCHEM_FEATURE_SELFOVERLAP>
20.297

>  <PUBCHEM_SHAPE_FINGERPRINT>
12670546 56 17489871527323574481
14251717 144 18342458131962730518
14252887 29 18261680363034286065
15207287 21 18260546749397990826
15375358 24 18259983807512264244
15375462 189 18131632279115812358
15757776 16 18273217486962844286
16945 1 18342173392599716032
17834074 16 18410578400699916111
18186145 218 17458910323430534007
200 152 18060702792450159032
20201158 50 18408328782755737706
20279233 1 18261115183475912091
20344682 1 18186803625488530108
20645477 70 18273493451338414927
21501502 16 18268717099559749320
2255824 54 18059857324201865168
22802520 49 18114750313026379353
23402539 116 17531239591197843572
23557571 272 17676485064642753645
23559900 14 18186519882689725318
257057 1 17687180890446423866
2871803 45 18411706461096452878
3323516 105 18334581239372701171
33824 294 18412825815394151182
474 4 16485549148123236640
4990 188 18113052731998691151
81228 2 17895481314907172821

>  <PUBCHEM_SHAPE_MULTIPOLES>
308.46
7.5
2.16
1.15
4.87
1.38
0.01
1.28
-1.34
-2.19
0.21
0.31
-0.1
0.97

>  <PUBCHEM_SHAPE_SELFOVERLAP>
627.7

>  <PUBCHEM_SHAPE_VOLUME>
178.4

>  <PUBCHEM_COORDINATE_TYPE>
2
5
10

$$$$
