104854617
 OpenBabel01182520543D

 29 29  0  0  1  0  0  0  0  0999 V2000
    4.2611   -0.8124    0.3563 F   0  0  0  0  0  0  0  0  0  0  0  0
    3.0303    0.4998    1.5840 F   0  0  0  0  0  0  0  0  0  0  0  0
    2.1513   -1.2717    0.6562 F   0  0  0  0  0  0  0  0  0  0  0  0
   -1.1215   -2.6959    0.4965 O   0  0  0  0  0  0  0  0  0  0  0  0
    0.2794    0.2285   -0.5432 N   0  0  0  0  0  0  0  0  0  0  0  0
   -1.2541    1.7974    0.2741 N   0  0  0  0  0  0  0  0  0  0  0  0
   -1.8249   -2.2793   -1.6460 N   0  0  0  0  0  0  0  0  0  0  0  0
    1.3216    1.2216   -0.6987 C   0  0  1  0  0  0  0  0  0  0  0  0
    2.6943    0.5413   -0.7687 C   0  0  0  0  0  0  0  0  0  0  0  0
    1.0479    2.0254   -1.9667 C   0  0  0  0  0  0  0  0  0  0  0  0
    3.0304   -0.2641    0.4721 C   0  0  0  0  0  0  0  0  0  0  0  0
   -0.9865    0.5165   -0.0655 C   0  0  0  0  0  0  0  0  0  0  0  0
   -1.8996   -0.5205    0.0384 C   0  0  0  0  0  0  0  0  0  0  0  0
   -3.1690   -0.2239    0.5220 C   0  0  0  0  0  0  0  0  0  0  0  0
   -1.5804   -1.8923   -0.3325 C   0  0  0  0  0  0  0  0  0  0  0  0
   -3.4822    1.0823    0.8817 C   0  0  0  0  0  0  0  0  0  0  0  0
   -2.4983    2.0475    0.7401 C   0  0  0  0  0  0  0  0  0  0  0  0
    1.3311    1.9021    0.1624 H   0  0  0  0  0  0  0  0  0  0  0  0
    2.7385   -0.1259   -1.6387 H   0  0  0  0  0  0  0  0  0  0  0  0
    3.4705    1.3023   -0.9133 H   0  0  0  0  0  0  0  0  0  0  0  0
    0.3800   -0.6136   -1.1010 H   0  0  0  0  0  0  0  0  0  0  0  0
    1.0111    1.3760   -2.8489 H   0  0  0  0  0  0  0  0  0  0  0  0
    0.0949    2.5612   -1.9144 H   0  0  0  0  0  0  0  0  0  0  0  0
    1.8347    2.7699   -2.1293 H   0  0  0  0  0  0  0  0  0  0  0  0
   -3.9219   -1.0011    0.6237 H   0  0  0  0  0  0  0  0  0  0  0  0
   -4.4652    1.3367    1.2611 H   0  0  0  0  0  0  0  0  0  0  0  0
   -2.6919    3.0813    1.0066 H   0  0  0  0  0  0  0  0  0  0  0  0
   -2.2054   -1.6383   -2.3349 H   0  0  0  0  0  0  0  0  0  0  0  0
   -1.6268   -3.2245   -1.9570 H   0  0  0  0  0  0  0  0  0  0  0  0
  1 11  1  0  0  0  0
  2 11  1  0  0  0  0
  3 11  1  0  0  0  0
  4 15  2  0  0  0  0
  5  8  1  0  0  0  0
  5 12  1  0  0  0  0
  5 21  1  0  0  0  0
  6 12  1  0  0  0  0
  6 17  2  0  0  0  0
  7 15  1  0  0  0  0
  7 28  1  0  0  0  0
  7 29  1  0  0  0  0
  8  9  1  0  0  0  0
  8 10  1  0  0  0  0
  8 18  1  1  0  0  0
  9 11  1  0  0  0  0
  9 19  1  0  0  0  0
  9 20  1  0  0  0  0
 10 22  1  0  0  0  0
 10 23  1  0  0  0  0
 10 24  1  0  0  0  0
 12 13  2  0  0  0  0
 13 14  1  0  0  0  0
 13 15  1  0  0  0  0
 14 16  2  0  0  0  0
 14 25  1  0  0  0  0
 16 17  1  0  0  0  0
 16 26  1  0  0  0  0
 17 27  1  0  0  0  0
M  END
>  <PUBCHEM_COMPOUND_CID>
104854617

>  <PUBCHEM_CONFORMER_RMSD>
0.6

>  <PUBCHEM_CONFORMER_DIVERSEORDER>
2
181
40
162
186
184
17
147
67
165
33
69
164
109
29
135
91
89
19
174
98
182
144
154
163
178
143
106
94
175
47
173
141
34
180
166
130
49
79
20
126
168
155
172
90
188
108
51
145
112
131
176
102
32
92
100
153
6
101
115
116
7
73
120
160
133
84
31
177
150
119
158
46
146
152
170
5
72
58
183
24
74
39
159
103
185
93
127
82
8
122
37
55
87
25
61
124
14
75
117
132
149
142
113
129
139
111
71
64
9
62
157
56
137
134
161
60
85
78
63
151
148
36
97
28
50
59
104
41
18
167
179
48
138
77
136
38
21
95
80
110
140
96
156
86
35
107
57
81
88
83
187
99
26
45
22
171
76
30
123
43
27
105
1
68
121
118
4
53
11
128
3
65
169
70
114
66
15
52
10
42
12
44
13
23
54
16
125

>  <PUBCHEM_MMFF94_PARTIAL_CHARGES>
21
1 -0.34
11 1.02
12 0.41
13 0.09
14 -0.15
15 0.54
16 -0.15
17 0.16
2 -0.34
21 0.4
25 0.15
26 0.15
27 0.15
28 0.37
29 0.37
3 -0.34
4 -0.57
5 -0.87
6 -0.62
7 -0.8
8 0.37

>  <PUBCHEM_EFFECTIVE_ROTOR_COUNT>
5

>  <PUBCHEM_PHARMACOPHORE_FEATURES>
6
1 4 acceptor
1 5 cation
1 5 donor
1 6 acceptor
1 7 donor
6 6 12 13 14 16 17 rings

>  <PUBCHEM_HEAVY_ATOM_COUNT>
17

>  <PUBCHEM_ATOM_DEF_STEREO_COUNT>
0

>  <PUBCHEM_ATOM_UDEF_STEREO_COUNT>
1

>  <PUBCHEM_BOND_DEF_STEREO_COUNT>
0

>  <PUBCHEM_BOND_UDEF_STEREO_COUNT>
0

>  <PUBCHEM_ISOTOPIC_ATOM_COUNT>
0

>  <PUBCHEM_COMPONENT_COUNT>
1

>  <PUBCHEM_CACTVS_TAUTO_COUNT>
9

>  <PUBCHEM_CONFORMER_ID>
063FF45900000002

>  <PUBCHEM_MMFF94_ENERGY>
51.7267

>  <PUBCHEM_FEATURE_SELFOVERLAP>
30.446

>  <PUBCHEM_SHAPE_FINGERPRINT>
11578080 2 18044911670993471725
12202030 40 16270272411602531717
12251169 10 18410856547113843688
12500047 106 18201717310749444248
12633257 1 18199446849577249800
13004483 165 17056363911948806918
13083527 12 16624025030985120167
13538477 17 18265062486175652189
14144814 61 18261119568627283573
14178342 30 18336538417335771538
15279307 12 18116169928624742212
15669948 3 18270412718367502429
15852999 172 17702957937047707821
16752209 62 18341059570615604965
16945 1 18413954987823363469
17804303 29 18271251525780876894
20361792 2 17458337546555120204
20442098 301 18412265068732325694
20645476 183 17897471560065456869
21524375 3 18270688558826947465
22445834 79 18260272979133705284
23184049 29 18056194915225181317
232386 152 18340492265280534964
23402539 116 17988914583810247973
23419403 2 17262661980265162445
23532345 11 18269261508329037410
23559900 14 17988659475384975756
23598291 2 18187657941242957276
23598294 1 17981913004927285191
23728640 28 18342178881742396347
257057 1 17554312997542057311
2748010 2 17976831878285500261
4072396 5 18338529569075501209
465052 167 17823161006868183617
5706482 22 18343024350797376507
58807428 26 18196105356393954147
6338986 31 17697585946652139647
69090 78 18201434749240914179
6992083 37 18260834773725294829
74978 22 18262243333945799933
81228 2 18129106787148853115
88987 49 18059305351820829933

>  <PUBCHEM_SHAPE_MULTIPOLES>
307.22
5.93
2.49
1.32
3.21
0.81
0.39
-0.02
-2.06
-1.38
0.57
0.46
-0.2
-1.37

>  <PUBCHEM_SHAPE_SELFOVERLAP>
636.401

>  <PUBCHEM_SHAPE_VOLUME>
175.8

>  <PUBCHEM_COORDINATE_TYPE>
2
5
10

$$$$
