105943045
 OpenBabel01182520543D

 29 29  0  0  1  0  0  0  0  0999 V2000
    4.1062    2.0812    0.1588 F   0  0  0  0  0  0  0  0  0  0  0  0
    3.3204    0.8718   -1.4818 F   0  0  0  0  0  0  0  0  0  0  0  0
    1.9625    1.7349   -0.0110 F   0  0  0  0  0  0  0  0  0  0  0  0
   -0.0006   -2.0091   -1.2380 O   0  0  0  0  0  0  0  0  0  0  0  0
    0.9120   -0.6751    0.4249 N   0  0  0  0  0  0  0  0  0  0  0  0
   -3.6094    0.1051   -1.0415 N   0  0  0  0  0  0  0  0  0  0  0  0
   -5.1744    1.2247    0.3636 N   0  0  0  0  0  0  0  0  0  0  0  0
    2.2639   -1.1703    0.3150 C   0  0  1  0  0  0  0  0  0  0  0  0
    3.2855   -0.0866    0.6846 C   0  0  0  0  0  0  0  0  0  0  0  0
    2.4379   -2.4012    1.2002 C   0  0  0  0  0  0  0  0  0  0  0  0
    3.1764    1.1612   -0.1711 C   0  0  0  0  0  0  0  0  0  0  0  0
   -0.1197   -1.1447   -0.3736 C   0  0  0  0  0  0  0  0  0  0  0  0
   -1.4471   -0.5144   -0.1554 C   0  0  0  0  0  0  0  0  0  0  0  0
   -1.7870    0.0330    1.0769 C   0  0  0  0  0  0  0  0  0  0  0  0
   -2.3852   -0.4533   -1.1732 C   0  0  0  0  0  0  0  0  0  0  0  0
   -3.0372    0.6163    1.2511 C   0  0  0  0  0  0  0  0  0  0  0  0
   -3.9043    0.6267    0.1704 C   0  0  0  0  0  0  0  0  0  0  0  0
    2.4340   -1.4729   -0.7257 H   0  0  0  0  0  0  0  0  0  0  0  0
    3.1601    0.2020    1.7356 H   0  0  0  0  0  0  0  0  0  0  0  0
    4.2993   -0.4925    0.5854 H   0  0  0  0  0  0  0  0  0  0  0  0
    2.2538   -2.1617    2.2535 H   0  0  0  0  0  0  0  0  0  0  0  0
    1.7355   -3.1922    0.9156 H   0  0  0  0  0  0  0  0  0  0  0  0
    3.4520   -2.8051    1.1138 H   0  0  0  0  0  0  0  0  0  0  0  0
    0.7428    0.0511    1.1125 H   0  0  0  0  0  0  0  0  0  0  0  0
   -1.1197   -0.0010    1.9325 H   0  0  0  0  0  0  0  0  0  0  0  0
   -2.1828   -0.8577   -2.1602 H   0  0  0  0  0  0  0  0  0  0  0  0
   -3.3121    1.0403    2.2114 H   0  0  0  0  0  0  0  0  0  0  0  0
   -5.5711    1.2228    1.2952 H   0  0  0  0  0  0  0  0  0  0  0  0
   -5.8070    1.2246   -0.4269 H   0  0  0  0  0  0  0  0  0  0  0  0
  1 11  1  0  0  0  0
  2 11  1  0  0  0  0
  3 11  1  0  0  0  0
  4 12  2  0  0  0  0
  5  8  1  0  0  0  0
  5 12  1  0  0  0  0
  5 24  1  0  0  0  0
  6 15  1  0  0  0  0
  6 17  2  0  0  0  0
  7 17  1  0  0  0  0
  7 28  1  0  0  0  0
  7 29  1  0  0  0  0
  8  9  1  0  0  0  0
  8 10  1  0  0  0  0
  8 18  1  6  0  0  0
  9 11  1  0  0  0  0
  9 19  1  0  0  0  0
  9 20  1  0  0  0  0
 10 21  1  0  0  0  0
 10 22  1  0  0  0  0
 10 23  1  0  0  0  0
 12 13  1  0  0  0  0
 13 14  1  0  0  0  0
 13 15  2  0  0  0  0
 14 16  2  0  0  0  0
 14 25  1  0  0  0  0
 15 26  1  0  0  0  0
 16 17  1  0  0  0  0
 16 27  1  0  0  0  0
M  END
>  <PUBCHEM_COMPOUND_CID>
105943045

>  <PUBCHEM_CONFORMER_RMSD>
0.6

>  <PUBCHEM_CONFORMER_DIVERSEORDER>
2
34
33
50
55
17
44
58
39
20
43
48
52
38
29
56
28
18
26
46
15
40
30
11
12
45
21
13
54
36
35
41
10
8
47
9
37
51
7
6
16
4
31
32
42
1
5
3
57
49
24
22
19
27
23
53
25
14

>  <PUBCHEM_MMFF94_PARTIAL_CHARGES>
21
1 -0.34
11 1.02
12 0.54
13 0.09
14 -0.15
15 0.16
16 -0.15
17 0.41
2 -0.34
24 0.37
25 0.15
26 0.15
27 0.15
28 0.4
29 0.4
3 -0.34
4 -0.57
5 -0.73
6 -0.62
7 -0.9
8 0.3

>  <PUBCHEM_EFFECTIVE_ROTOR_COUNT>
5

>  <PUBCHEM_PHARMACOPHORE_FEATURES>
5
1 4 acceptor
1 5 donor
1 7 donor
3 6 7 17 cation
6 6 13 14 15 16 17 rings

>  <PUBCHEM_HEAVY_ATOM_COUNT>
17

>  <PUBCHEM_ATOM_DEF_STEREO_COUNT>
0

>  <PUBCHEM_ATOM_UDEF_STEREO_COUNT>
1

>  <PUBCHEM_BOND_DEF_STEREO_COUNT>
0

>  <PUBCHEM_BOND_UDEF_STEREO_COUNT>
0

>  <PUBCHEM_ISOTOPIC_ATOM_COUNT>
0

>  <PUBCHEM_COMPONENT_COUNT>
1

>  <PUBCHEM_CACTVS_TAUTO_COUNT>
9

>  <PUBCHEM_CONFORMER_ID>
0650900500000002

>  <PUBCHEM_MMFF94_ENERGY>
41.6834

>  <PUBCHEM_FEATURE_SELFOVERLAP>
25.372

>  <PUBCHEM_SHAPE_FINGERPRINT>
10498660 4 17703790336001053377
10980938 120 18261105288224722470
12633257 1 16226327131016976432
14123255 52 18339643455304948632
14251764 38 18049439241318617325
14289901 80 17385729101381018747
15342168 16 18334581269347574293
15775835 57 18411981398895626868
17357990 137 18202001002040283322
1813 80 17910117902428033702
18186145 218 18336261249937036271
19049666 15 16735216116155570143
19784866 34 18337669832075548136
20233049 118 17703783709103652394
20645476 183 18200869677384102231
2255824 54 18338796702571614234
22854114 111 18334293180115770816
231179 274 18334577949459043652
23557571 272 15122641748648939815
23559900 14 15719675338191614026
251288 83 14057291947131856062
4409770 3 15533643159182235647
449060 62 18408042905179176684
474 4 18341050731356742427
4990 188 14189286037598104635
537710 114 17917709076670978489
57096353 35 17417514861917393455
6049 1 17168701908337900790
633830 44 18343022142931388199
8272917 22 18263082132453209699

>  <PUBCHEM_SHAPE_MULTIPOLES>
307.22
8.53
1.94
1.23
3.86
0.18
-0.11
-4.34
0.69
-2.41
0.08
0.26
0.23
-1.05

>  <PUBCHEM_SHAPE_SELFOVERLAP>
633.932

>  <PUBCHEM_SHAPE_VOLUME>
176.6

>  <PUBCHEM_COORDINATE_TYPE>
2
5
10

$$$$
