105943000
 OpenBabel01182520543D

 29 29  0  0  1  0  0  0  0  0999 V2000
    4.2687   -1.5588   -0.4454 F   0  0  0  0  0  0  0  0  0  0  0  0
    3.3215   -0.7354    1.3425 F   0  0  0  0  0  0  0  0  0  0  0  0
    2.1009   -1.6074   -0.2393 F   0  0  0  0  0  0  0  0  0  0  0  0
   -0.4415    1.5468    1.4825 O   0  0  0  0  0  0  0  0  0  0  0  0
    0.6513    0.6263   -0.3440 N   0  0  0  0  0  0  0  0  0  0  0  0
   -3.9805   -0.1551   -0.3719 N   0  0  0  0  0  0  0  0  0  0  0  0
   -2.9708    1.9711   -0.0889 N   0  0  0  0  0  0  0  0  0  0  0  0
    1.9023    1.3239   -0.1608 C   0  0  1  0  0  0  0  0  0  0  0  0
    3.0847    0.4897   -0.6714 C   0  0  0  0  0  0  0  0  0  0  0  0
    1.8496    2.6755   -0.8673 C   0  0  0  0  0  0  0  0  0  0  0  0
    3.2035   -0.8635    0.0038 C   0  0  0  0  0  0  0  0  0  0  0  0
   -0.4295    0.8008    0.5069 C   0  0  0  0  0  0  0  0  0  0  0  0
   -1.6356   -0.0096    0.1979 C   0  0  0  0  0  0  0  0  0  0  0  0
   -2.8666    0.5573   -0.0905 C   0  0  0  0  0  0  0  0  0  0  0  0
   -1.5417   -1.3969    0.1972 C   0  0  0  0  0  0  0  0  0  0  0  0
   -2.6658   -2.1641   -0.0879 C   0  0  0  0  0  0  0  0  0  0  0  0
   -3.8508   -1.5008   -0.3634 C   0  0  0  0  0  0  0  0  0  0  0  0
    2.0384    1.5062    0.9124 H   0  0  0  0  0  0  0  0  0  0  0  0
    2.9895    0.3299   -1.7527 H   0  0  0  0  0  0  0  0  0  0  0  0
    4.0173    1.0441   -0.5129 H   0  0  0  0  0  0  0  0  0  0  0  0
    1.6895    2.5543   -1.9445 H   0  0  0  0  0  0  0  0  0  0  0  0
    1.0287    3.2892   -0.4803 H   0  0  0  0  0  0  0  0  0  0  0  0
    2.7822    3.2302   -0.7207 H   0  0  0  0  0  0  0  0  0  0  0  0
    0.5515    0.0219   -1.1549 H   0  0  0  0  0  0  0  0  0  0  0  0
   -0.6021   -1.8945    0.4220 H   0  0  0  0  0  0  0  0  0  0  0  0
   -2.6164   -3.2469   -0.0929 H   0  0  0  0  0  0  0  0  0  0  0  0
   -4.7563   -2.0532   -0.5915 H   0  0  0  0  0  0  0  0  0  0  0  0
   -2.3721    2.5010    0.5322 H   0  0  0  0  0  0  0  0  0  0  0  0
   -3.8815    2.3573   -0.3063 H   0  0  0  0  0  0  0  0  0  0  0  0
  1 11  1  0  0  0  0
  2 11  1  0  0  0  0
  3 11  1  0  0  0  0
  4 12  2  0  0  0  0
  5  8  1  0  0  0  0
  5 12  1  0  0  0  0
  5 24  1  0  0  0  0
  6 14  1  0  0  0  0
  6 17  2  0  0  0  0
  7 14  1  0  0  0  0
  7 28  1  0  0  0  0
  7 29  1  0  0  0  0
  8  9  1  0  0  0  0
  8 10  1  0  0  0  0
  8 18  1  1  0  0  0
  9 11  1  0  0  0  0
  9 19  1  0  0  0  0
  9 20  1  0  0  0  0
 10 21  1  0  0  0  0
 10 22  1  0  0  0  0
 10 23  1  0  0  0  0
 12 13  1  0  0  0  0
 13 14  2  0  0  0  0
 13 15  1  0  0  0  0
 15 16  2  0  0  0  0
 15 25  1  0  0  0  0
 16 17  1  0  0  0  0
 16 26  1  0  0  0  0
 17 27  1  0  0  0  0
M  END
>  <PUBCHEM_COMPOUND_CID>
105943000

>  <PUBCHEM_CONFORMER_RMSD>
0.6

>  <PUBCHEM_CONFORMER_DIVERSEORDER>
1
14
69
55
53
65
70
37
58
63
62
49
67
13
24
23
9
54
4
43
66
6
72
52
40
2
22
10
28
44
32
46
41
45
36
18
61
42
11
64
19
51
5
68
34
21
33
47
59
26
20
8
57
15
35
71
16
3
48
29
31
60
50
25
27
39
7
56
38
12
17
30

>  <PUBCHEM_MMFF94_PARTIAL_CHARGES>
21
1 -0.34
11 1.02
12 0.54
13 0.09
14 0.41
15 -0.15
16 -0.15
17 0.16
2 -0.34
24 0.37
25 0.15
26 0.15
27 0.15
28 0.4
29 0.4
3 -0.34
4 -0.57
5 -0.73
6 -0.62
7 -0.9
8 0.3

>  <PUBCHEM_EFFECTIVE_ROTOR_COUNT>
5

>  <PUBCHEM_PHARMACOPHORE_FEATURES>
6
1 4 acceptor
1 5 donor
1 6 acceptor
1 7 cation
1 7 donor
6 6 13 14 15 16 17 rings

>  <PUBCHEM_HEAVY_ATOM_COUNT>
17

>  <PUBCHEM_ATOM_DEF_STEREO_COUNT>
0

>  <PUBCHEM_ATOM_UDEF_STEREO_COUNT>
1

>  <PUBCHEM_BOND_DEF_STEREO_COUNT>
0

>  <PUBCHEM_BOND_UDEF_STEREO_COUNT>
0

>  <PUBCHEM_ISOTOPIC_ATOM_COUNT>
0

>  <PUBCHEM_COMPONENT_COUNT>
1

>  <PUBCHEM_CACTVS_TAUTO_COUNT>
9

>  <PUBCHEM_CONFORMER_ID>
06508FD800000001

>  <PUBCHEM_MMFF94_ENERGY>
44.617

>  <PUBCHEM_FEATURE_SELFOVERLAP>
30.446

>  <PUBCHEM_SHAPE_FINGERPRINT>
10062212 137 18272083890517032607
10616163 171 18194970870436471631
10756046 5 18335425694051028292
11769659 78 18411135865742470341
12707595 3 17560526212716474256
13296908 3 17846779624037905170
14144814 61 18410015446192837305
14350558 41 18341614840850950752
15375462 6 18193278726457533069
15442244 35 18408887312919071996
15536298 74 18340768229940662242
17492 89 18337392750365643046
17834072 14 18201145598994115584
18186145 218 17458338680315534491
20281475 54 18199191865979970987
20626108 58 18262499473221661610
20645477 70 18263925599642401991
20671657 53 18408608045824245636
21501502 16 18339648940041404637
221490 88 18190752010145416938
2255824 54 18040999596110429724
23463225 33 18411703218079587655
23532345 88 18336827614420827436
23559900 14 18342452668838222080
23598291 2 18334868211538246717
2748010 2 16681755000607345243
2916195 48 11170498858675831318
3082319 5 18261396701513208597
53777708 50 18337963397137380909
58051976 100 18261111859698687349
58051976 378 18122065561686902436
6992083 37 18264220118582879705
7364860 26 18339643472569434592
74978 22 18335707156089946364
76465 3 17845361310437502719
81228 2 16772135556411639769
93112 12 18335140929250506237
9709674 26 18263648526975650986

>  <PUBCHEM_SHAPE_MULTIPOLES>
307.22
7.5
2.44
0.89
0.37
0.44
0.22
-2.93
-1.09
0.45
-0.24
0.34
0.18
-0.52

>  <PUBCHEM_SHAPE_SELFOVERLAP>
634.687

>  <PUBCHEM_SHAPE_VOLUME>
176.2

>  <PUBCHEM_COORDINATE_TYPE>
2
5
10

$$$$
