106214824
 OpenBabel01182520543D

 27 28  0  0  0  0  0  0  0  0999 V2000
    4.2053    0.8643   -0.4061 F   0  0  0  0  0  0  0  0  0  0  0  0
    2.8284   -0.0087   -1.8636 F   0  0  0  0  0  0  0  0  0  0  0  0
    2.2057    1.7113   -0.6652 F   0  0  0  0  0  0  0  0  0  0  0  0
   -5.0031   -0.3368   -0.3630 O   0  0  0  0  0  0  0  0  0  0  0  0
    1.2713   -1.1941   -0.0473 N   0  0  0  0  0  0  0  0  0  0  0  0
   -0.3675    0.4506    0.4348 N   0  0  0  0  0  0  0  0  0  0  0  0
   -4.3473    1.6841    0.4997 N   0  0  0  0  0  0  0  0  0  0  0  0
    2.3881   -0.3555    0.4006 C   0  0  0  0  0  0  0  0  0  0  0  0
    2.4091    0.1319    1.8325 C   0  0  0  0  0  0  0  0  0  0  0  0
    3.3783   -0.9236    1.3931 C   0  0  0  0  0  0  0  0  0  0  0  0
    2.9185    0.5732   -0.6567 C   0  0  0  0  0  0  0  0  0  0  0  0
   -0.0716   -0.7846   -0.0281 C   0  0  0  0  0  0  0  0  0  0  0  0
   -1.0162   -1.6863   -0.4912 C   0  0  0  0  0  0  0  0  0  0  0  0
   -2.3506   -1.2952   -0.4785 C   0  0  0  0  0  0  0  0  0  0  0  0
   -1.6748    0.7956    0.4319 C   0  0  0  0  0  0  0  0  0  0  0  0
   -2.6945   -0.0321   -0.0096 C   0  0  0  0  0  0  0  0  0  0  0  0
   -4.0791    0.4057    0.0165 C   0  0  0  0  0  0  0  0  0  0  0  0
    1.6168   -0.1738    2.5056 H   0  0  0  0  0  0  0  0  0  0  0  0
    2.8005    1.1219    2.0354 H   0  0  0  0  0  0  0  0  0  0  0  0
    4.4241   -0.6499    1.3316 H   0  0  0  0  0  0  0  0  0  0  0  0
    3.2173   -1.9331    1.7547 H   0  0  0  0  0  0  0  0  0  0  0  0
    1.4736   -2.0276   -0.5907 H   0  0  0  0  0  0  0  0  0  0  0  0
   -0.7425   -2.6712   -0.8554 H   0  0  0  0  0  0  0  0  0  0  0  0
   -3.1048   -1.9898   -0.8381 H   0  0  0  0  0  0  0  0  0  0  0  0
   -1.8288    1.7959    0.8164 H   0  0  0  0  0  0  0  0  0  0  0  0
   -3.6561    2.3454    0.8304 H   0  0  0  0  0  0  0  0  0  0  0  0
   -5.3071    2.0130    0.5353 H   0  0  0  0  0  0  0  0  0  0  0  0
  1 11  1  0  0  0  0
  2 11  1  0  0  0  0
  3 11  1  0  0  0  0
  4 17  2  0  0  0  0
  5  8  1  0  0  0  0
  5 12  1  0  0  0  0
  5 22  1  0  0  0  0
  6 12  2  0  0  0  0
  6 15  1  0  0  0  0
  7 17  1  0  0  0  0
  7 26  1  0  0  0  0
  7 27  1  0  0  0  0
  8  9  1  0  0  0  0
  8 10  1  0  0  0  0
  8 11  1  0  0  0  0
  9 10  1  0  0  0  0
  9 18  1  0  0  0  0
  9 19  1  0  0  0  0
 10 20  1  0  0  0  0
 10 21  1  0  0  0  0
 12 13  1  0  0  0  0
 13 14  2  0  0  0  0
 13 23  1  0  0  0  0
 14 16  1  0  0  0  0
 14 24  1  0  0  0  0
 15 16  2  0  0  0  0
 15 25  1  0  0  0  0
 16 17  1  0  0  0  0
M  END
>  <PUBCHEM_COMPOUND_CID>
106214824

>  <PUBCHEM_CONFORMER_RMSD>
0.6

>  <PUBCHEM_CONFORMER_DIVERSEORDER>
1
34
26
15
37
20
36
5
29
12
28
8
39
38
23
9
31
14
4
32
6
25
35
18
7
19
40
33
10
24
30
21
2
27
3
22
17
16
11
13

>  <PUBCHEM_MMFF94_PARTIAL_CHARGES>
27
1 -0.34
10 -0.2
11 1.12
12 0.41
13 -0.15
14 -0.15
15 0.16
16 0.09
17 0.54
18 0.1
19 0.1
2 -0.34
20 0.1
21 0.1
22 0.4
23 0.15
24 0.15
25 0.15
26 0.37
27 0.37
3 -0.34
4 -0.57
5 -0.67
6 -0.62
7 -0.8
8 0.07
9 -0.2

>  <PUBCHEM_EFFECTIVE_ROTOR_COUNT>
4.6

>  <PUBCHEM_PHARMACOPHORE_FEATURES>
5
1 4 acceptor
1 5 donor
1 7 donor
3 5 6 12 cation
6 6 12 13 14 15 16 rings

>  <PUBCHEM_HEAVY_ATOM_COUNT>
17

>  <PUBCHEM_ATOM_DEF_STEREO_COUNT>
0

>  <PUBCHEM_ATOM_UDEF_STEREO_COUNT>
0

>  <PUBCHEM_BOND_DEF_STEREO_COUNT>
0

>  <PUBCHEM_BOND_UDEF_STEREO_COUNT>
0

>  <PUBCHEM_ISOTOPIC_ATOM_COUNT>
0

>  <PUBCHEM_COMPONENT_COUNT>
1

>  <PUBCHEM_CACTVS_TAUTO_COUNT>
9

>  <PUBCHEM_CONFORMER_ID>
0654B5A800000001

>  <PUBCHEM_MMFF94_ENERGY>
47.4871

>  <PUBCHEM_FEATURE_SELFOVERLAP>
25.372

>  <PUBCHEM_SHAPE_FINGERPRINT>
10498660 4 18272373031783766705
11132069 177 18131626777563211011
11543360 7 14476661028142318329
12236239 1 18260825999491847698
12403814 3 17967806146579205877
12670546 56 16878215382082101805
12932764 1 16081077182384806154
13296908 3 16271926064385301671
13538477 17 18261951946263873154
13583140 156 17313388971883881129
14252887 29 13045947880196135576
14289901 80 16153712037576034789
15342168 16 16516543238100430590
15375358 24 16845562136841036602
15775835 57 18187085087353309964
16945 1 18273213118696378043
1813 80 17606675826171991466
18186145 218 17022897943437297915
19026448 4 15769771369023327747
19026448 5 17749106695192458291
20233049 118 18272368681050220920
20279233 1 16702300178425930278
20559304 39 18261386716004252810
20645476 183 18336548316971793863
20645477 70 16660631938981414883
212847 35 18271523104820686945
22854114 111 17967813859781364892
22854114 59 15574432120184152987
23048698 100 17675922088397328075
23402539 116 17346016910206947682
23557571 272 17345180297711992466
23559900 14 17917718976486167270
31174 14 15719388434581547430
474 4 17460321172927234652
4990 188 17132116823107432007
5281201 14 15554450686730066937
537710 114 18341892996102869345
7364860 26 17773029761489002166
77492 1 18187075182942655290

>  <PUBCHEM_SHAPE_MULTIPOLES>
307.22
8.48
1.45
1.21
4.93
0.03
0.09
-2.1
0
0.53
-0.11
-1.58
-0.06
-0.8

>  <PUBCHEM_SHAPE_SELFOVERLAP>
654.474

>  <PUBCHEM_SHAPE_VOLUME>
171.9

>  <PUBCHEM_COORDINATE_TYPE>
2
5
10

$$$$
