106218137
 OpenBabel01182520543D

 27 28  0  0  0  0  0  0  0  0999 V2000
    4.2961   -0.8540   -0.0684 F   0  0  0  0  0  0  0  0  0  0  0  0
    2.4230   -1.8690   -0.5624 F   0  0  0  0  0  0  0  0  0  0  0  0
    3.0075   -0.0633   -1.6487 F   0  0  0  0  0  0  0  0  0  0  0  0
    0.3510    1.4365   -1.1057 O   0  0  0  0  0  0  0  0  0  0  0  0
    0.8848   -0.0449    0.5952 N   0  0  0  0  0  0  0  0  0  0  0  0
   -3.7437    0.9272   -0.3524 N   0  0  0  0  0  0  0  0  0  0  0  0
   -5.4640   -0.6108    0.2410 N   0  0  0  0  0  0  0  0  0  0  0  0
    2.2976    0.1714    0.5608 C   0  0  0  0  0  0  0  0  0  0  0  0
    2.8319    1.5632    0.8216 C   0  0  0  0  0  0  0  0  0  0  0  0
    3.0214    0.4906    1.8509 C   0  0  0  0  0  0  0  0  0  0  0  0
    3.0223   -0.6725   -0.4523 C   0  0  0  0  0  0  0  0  0  0  0  0
    0.0085    0.6174   -0.2568 C   0  0  0  0  0  0  0  0  0  0  0  0
   -1.4289    0.2707   -0.1168 C   0  0  0  0  0  0  0  0  0  0  0  0
   -1.8230   -0.9753    0.3582 C   0  0  0  0  0  0  0  0  0  0  0  0
   -2.4193    1.1784   -0.4555 C   0  0  0  0  0  0  0  0  0  0  0  0
   -3.1764   -1.2712    0.4783 C   0  0  0  0  0  0  0  0  0  0  0  0
   -4.0887   -0.2943    0.1129 C   0  0  0  0  0  0  0  0  0  0  0  0
    2.1335    2.3583    1.0547 H   0  0  0  0  0  0  0  0  0  0  0  0
    3.7052    1.8926    0.2710 H   0  0  0  0  0  0  0  0  0  0  0  0
    4.0270    0.1228    2.0127 H   0  0  0  0  0  0  0  0  0  0  0  0
    2.4377    0.5627    2.7621 H   0  0  0  0  0  0  0  0  0  0  0  0
    0.5386   -0.6826    1.3057 H   0  0  0  0  0  0  0  0  0  0  0  0
   -1.1069   -1.7487    0.6189 H   0  0  0  0  0  0  0  0  0  0  0  0
   -2.1802    2.1696   -0.8287 H   0  0  0  0  0  0  0  0  0  0  0  0
   -3.4917   -2.2432    0.8433 H   0  0  0  0  0  0  0  0  0  0  0  0
   -5.7445   -1.5806    0.1629 H   0  0  0  0  0  0  0  0  0  0  0  0
   -6.1270    0.1037   -0.0329 H   0  0  0  0  0  0  0  0  0  0  0  0
  1 11  1  0  0  0  0
  2 11  1  0  0  0  0
  3 11  1  0  0  0  0
  4 12  2  0  0  0  0
  5  8  1  0  0  0  0
  5 12  1  0  0  0  0
  5 22  1  0  0  0  0
  6 15  1  0  0  0  0
  6 17  2  0  0  0  0
  7 17  1  0  0  0  0
  7 26  1  0  0  0  0
  7 27  1  0  0  0  0
  8  9  1  0  0  0  0
  8 10  1  0  0  0  0
  8 11  1  0  0  0  0
  9 10  1  0  0  0  0
  9 18  1  0  0  0  0
  9 19  1  0  0  0  0
 10 20  1  0  0  0  0
 10 21  1  0  0  0  0
 12 13  1  0  0  0  0
 13 14  1  0  0  0  0
 13 15  2  0  0  0  0
 14 16  2  0  0  0  0
 14 23  1  0  0  0  0
 15 24  1  0  0  0  0
 16 17  1  0  0  0  0
 16 25  1  0  0  0  0
M  END
>  <PUBCHEM_COMPOUND_CID>
106218137

>  <PUBCHEM_CONFORMER_RMSD>
0.6

>  <PUBCHEM_CONFORMER_DIVERSEORDER>
2
3
1
4

>  <PUBCHEM_MMFF94_PARTIAL_CHARGES>
27
1 -0.34
10 -0.2
11 1.12
12 0.54
13 0.09
14 -0.15
15 0.16
16 -0.15
17 0.41
18 0.1
19 0.1
2 -0.34
20 0.1
21 0.1
22 0.37
23 0.15
24 0.15
25 0.15
26 0.4
27 0.4
3 -0.34
4 -0.57
5 -0.58
6 -0.62
7 -0.9
8 0.05
9 -0.2

>  <PUBCHEM_EFFECTIVE_ROTOR_COUNT>
4.6

>  <PUBCHEM_PHARMACOPHORE_FEATURES>
5
1 4 acceptor
1 5 donor
1 7 donor
3 6 7 17 cation
6 6 13 14 15 16 17 rings

>  <PUBCHEM_HEAVY_ATOM_COUNT>
17

>  <PUBCHEM_ATOM_DEF_STEREO_COUNT>
0

>  <PUBCHEM_ATOM_UDEF_STEREO_COUNT>
0

>  <PUBCHEM_BOND_DEF_STEREO_COUNT>
0

>  <PUBCHEM_BOND_UDEF_STEREO_COUNT>
0

>  <PUBCHEM_ISOTOPIC_ATOM_COUNT>
0

>  <PUBCHEM_COMPONENT_COUNT>
1

>  <PUBCHEM_CACTVS_TAUTO_COUNT>
9

>  <PUBCHEM_CONFORMER_ID>
0654C29900000002

>  <PUBCHEM_MMFF94_ENERGY>
45.3188

>  <PUBCHEM_FEATURE_SELFOVERLAP>
25.372

>  <PUBCHEM_SHAPE_FINGERPRINT>
10465860 71 17968110706409014196
11543360 7 13479137929958033769
12236239 1 16587739824297207106
12507560 40 18273491273573841073
13296908 3 18342454854818034273
13533116 47 17418102005390405519
13675066 3 18411419540428102467
13760787 5 15791448202047032865
14144814 61 17894624855678468329
14252887 29 18408885156792534257
14289901 80 17917141801469205577
15219456 202 18272082807678650920
15375358 24 18410284848143060147
17804303 29 18334858325108892129
18175812 5 18342172271676366940
18186145 218 18131634461038105665
19026448 4 18201995525962158273
19049666 15 18200025114840858865
19107657 162 18335422408701610227
19422 9 16443339845625009161
200 152 17489864925779349067
20279233 1 18413668023762352027
20281475 54 16588018030988396201
20645477 70 17704072884656167614
2255824 54 16733270156863238268
22854114 59 18130784585868315091
23048698 100 16487257689917629739
23402539 116 17676203542537557710
23557571 272 18041270011388623924
23559900 14 18411134727713520764
42 15 18273498974834902291
449060 50 18201150065633866656
474 4 15695999722225298122
495365 180 17845069810505592585
522135 26 16702306762547316192
5374978 207 18334851753561048721
6049 1 18342735182970307912
69090 78 18201994460973961607
7364860 26 18191031298730943437
8272917 22 16630535015715255764
9709674 26 18264488558481235003

>  <PUBCHEM_SHAPE_MULTIPOLES>
307.22
8.95
1.43
1.14
5.53
0.05
0.09
1.59
0.84
-0.32
-0.12
-1.16
-0.14
0.99

>  <PUBCHEM_SHAPE_SELFOVERLAP>
654.71

>  <PUBCHEM_SHAPE_VOLUME>
171.8

>  <PUBCHEM_COORDINATE_TYPE>
2
5
10

$$$$
