106295566
 OpenBabel01182520543D

 26 26  0  0  0  0  0  0  0  0999 V2000
    2.1258   -1.0717    0.0729 F   0  0  0  0  0  0  0  0  0  0  0  0
    2.3850    0.0507   -1.7802 F   0  0  0  0  0  0  0  0  0  0  0  0
    4.2405    0.2316    1.2006 F   0  0  0  0  0  0  0  0  0  0  0  0
    4.7039   -0.7876   -0.6664 F   0  0  0  0  0  0  0  0  0  0  0  0
   -0.1895   -0.1474    1.7672 O   0  0  0  0  0  0  0  0  0  0  0  0
    0.3214    1.0588   -0.1470 N   0  0  0  0  0  0  0  0  0  0  0  0
   -3.8346   -1.1237   -0.3679 N   0  0  0  0  0  0  0  0  0  0  0  0
   -1.7954   -2.1581    0.2581 N   0  0  0  0  0  0  0  0  0  0  0  0
    1.7202    1.2426    0.1348 C   0  0  0  0  0  0  0  0  0  0  0  0
    2.5562    0.1111   -0.4353 C   0  0  0  0  0  0  0  0  0  0  0  0
    4.0290    0.2641   -0.1372 C   0  0  0  0  0  0  0  0  0  0  0  0
   -0.5306    0.3683    0.7061 C   0  0  0  0  0  0  0  0  0  0  0  0
   -1.9417    0.2433    0.2589 C   0  0  0  0  0  0  0  0  0  0  0  0
   -2.5542   -0.9803    0.0416 C   0  0  0  0  0  0  0  0  0  0  0  0
   -2.6916    1.3940    0.0419 C   0  0  0  0  0  0  0  0  0  0  0  0
   -4.0122    1.2873   -0.3796 C   0  0  0  0  0  0  0  0  0  0  0  0
   -4.5322    0.0168   -0.5684 C   0  0  0  0  0  0  0  0  0  0  0  0
    1.8534    1.3098    1.2198 H   0  0  0  0  0  0  0  0  0  0  0  0
    2.0104    2.1975   -0.3152 H   0  0  0  0  0  0  0  0  0  0  0  0
   -0.0428    1.4357   -1.0174 H   0  0  0  0  0  0  0  0  0  0  0  0
    4.4502    1.1851   -0.5495 H   0  0  0  0  0  0  0  0  0  0  0  0
   -2.2625    2.3798    0.2007 H   0  0  0  0  0  0  0  0  0  0  0  0
   -4.6160    2.1705   -0.5541 H   0  0  0  0  0  0  0  0  0  0  0  0
   -5.5572   -0.1206   -0.8964 H   0  0  0  0  0  0  0  0  0  0  0  0
   -0.7960   -2.1268    0.0987 H   0  0  0  0  0  0  0  0  0  0  0  0
   -2.2698   -3.0379    0.0944 H   0  0  0  0  0  0  0  0  0  0  0  0
  1 10  1  0  0  0  0
  2 10  1  0  0  0  0
  3 11  1  0  0  0  0
  4 11  1  0  0  0  0
  5 12  2  0  0  0  0
  6  9  1  0  0  0  0
  6 12  1  0  0  0  0
  6 20  1  0  0  0  0
  7 14  1  0  0  0  0
  7 17  2  0  0  0  0
  8 14  1  0  0  0  0
  8 25  1  0  0  0  0
  8 26  1  0  0  0  0
  9 10  1  0  0  0  0
  9 18  1  0  0  0  0
  9 19  1  0  0  0  0
 10 11  1  0  0  0  0
 11 21  1  0  0  0  0
 12 13  1  0  0  0  0
 13 14  2  0  0  0  0
 13 15  1  0  0  0  0
 15 16  2  0  0  0  0
 15 22  1  0  0  0  0
 16 17  1  0  0  0  0
 16 23  1  0  0  0  0
 17 24  1  0  0  0  0
M  END
>  <PUBCHEM_COMPOUND_CID>
106295566

>  <PUBCHEM_CONFORMER_RMSD>
0.6

>  <PUBCHEM_CONFORMER_DIVERSEORDER>
1
55
31
115
120
135
38
94
103
95
64
140
22
79
90
53
65
83
111
35
132
78
26
96
25
39
63
107
72
19
52
138
134
77
112
29
30
106
121
97
88
46
85
42
117
131
73
93
110
137
59
54
41
56
139
82
101
68
43
104
130
109
36
91
74
23
100
15
124
136
114
8
123
44
108
102
81
122
32
67
92
4
69
18
60
17
14
133
76
70
45
127
50
119
57
9
129
125
27
3
71
105
24
5
13
126
116
34
37
10
84
33
2
11
40
28
12
86
128
61
62
118
66
98
20
21
87
47
58
89
113
16
80
99
7
48
75
6
49
51

>  <PUBCHEM_MMFF94_PARTIAL_CHARGES>
23
1 -0.34
10 0.68
11 0.68
12 0.54
13 0.09
14 0.41
15 -0.15
16 -0.15
17 0.16
2 -0.34
20 0.37
22 0.15
23 0.15
24 0.15
25 0.4
26 0.4
3 -0.34
4 -0.34
5 -0.57
6 -0.73
7 -0.62
8 -0.9
9 0.3

>  <PUBCHEM_EFFECTIVE_ROTOR_COUNT>
5

>  <PUBCHEM_PHARMACOPHORE_FEATURES>
6
1 5 acceptor
1 6 donor
1 7 acceptor
1 8 cation
1 8 donor
6 7 13 14 15 16 17 rings

>  <PUBCHEM_HEAVY_ATOM_COUNT>
17

>  <PUBCHEM_ATOM_DEF_STEREO_COUNT>
0

>  <PUBCHEM_ATOM_UDEF_STEREO_COUNT>
0

>  <PUBCHEM_BOND_DEF_STEREO_COUNT>
0

>  <PUBCHEM_BOND_UDEF_STEREO_COUNT>
0

>  <PUBCHEM_ISOTOPIC_ATOM_COUNT>
0

>  <PUBCHEM_COMPONENT_COUNT>
1

>  <PUBCHEM_CACTVS_TAUTO_COUNT>
9

>  <PUBCHEM_CONFORMER_ID>
0655F10E00000001

>  <PUBCHEM_MMFF94_ENERGY>
37.8563

>  <PUBCHEM_FEATURE_SELFOVERLAP>
30.446

>  <PUBCHEM_SHAPE_FINGERPRINT>
10062212 137 17967523584348268914
10366900 7 16487260984611232818
10465860 250 17418091009778002513
11370993 70 18341609321665339190
11401426 45 18260263058044114240
11615757 297 13902188192587516512
13296908 3 17917999377441511084
14115302 16 18260556640343617996
14943859 89 17240484710589640161
15375358 24 17988923374917225598
17834072 14 18272649069326222552
17870717 6 18272103672640350871
18186145 218 18272091578355466193
19862831 5 18113613499966470161
200 152 16702020863643592264
20201158 50 17988929972024091023
20279233 1 18060424616039804990
20645476 183 17749101210635525859
20645477 70 17275108284661688356
20671657 53 17989213646045351168
21119208 17 18187083957507833727
21652331 79 9223227442586424782
22485316 2 18272086093465652454
22854114 59 8718826483354455028
23402539 116 18342168952162935157
23402655 69 18040715831425910380
23557571 272 18202005382654055364
23559900 14 18273211989541855496
26918003 58 17275385391334930904
2916195 48 11891628965625994134
57005193 9 18412538808225380198
573450 72 18261380135734579905
58051976 100 18187083974909365903
69090 78 18408881837035904725
74978 22 16588596425391291808
81228 2 17630349466088719128
93112 12 18408604798739571757
9709674 26 18343024418968629991
9882013 296 12823300099839227016
9971528 1 17530682104980983996
9981440 41 16959580624937694877

>  <PUBCHEM_SHAPE_MULTIPOLES>
299.94
9.18
1.45
1.04
3.79
0.33
-0.07
0.26
1.77
-1.08
-0.01
0.57
0.01
0.21

>  <PUBCHEM_SHAPE_SELFOVERLAP>
626.915

>  <PUBCHEM_SHAPE_VOLUME>
169

>  <PUBCHEM_COORDINATE_TYPE>
2
5
10

$$$$
