107494247
 OpenBabel01182520543D

 31 31  0  0  1  0  0  0  0  0999 V2000
    3.1545    2.0855   -0.9170 F   0  0  0  0  0  0  0  0  0  0  0  0
    1.9874    1.6944    0.8824 F   0  0  0  0  0  0  0  0  0  0  0  0
    3.2596    0.1294    0.0396 F   0  0  0  0  0  0  0  0  0  0  0  0
   -2.4129   -1.2225   -1.9662 O   0  0  0  0  0  0  0  0  0  0  0  0
    0.4913   -0.3246   -0.4190 N   0  0  0  0  0  0  0  0  0  0  0  0
   -0.3103    0.3219    1.7014 N   0  0  0  0  0  0  0  0  0  0  0  0
    1.4951   -3.7400    0.6230 N   0  0  0  0  0  0  0  0  0  0  0  0
   -1.9713    0.9692   -2.4765 N   0  0  0  0  0  0  0  0  0  0  0  0
    0.8324   -1.7174   -0.5849 C   0  0  0  0  0  0  0  0  0  0  0  0
    1.2815    0.6797   -1.1332 C   0  0  0  0  0  0  0  0  0  0  0  0
   -0.5751    0.0746    0.3989 C   0  0  0  0  0  0  0  0  0  0  0  0
    1.1559   -2.3303    0.7715 C   0  0  0  0  0  0  0  0  0  0  0  0
   -1.8322    0.1892   -0.1724 C   0  0  0  0  0  0  0  0  0  0  0  0
    2.4281    1.1468   -0.2701 C   0  0  0  0  0  0  0  0  0  0  0  0
   -2.8854    0.5830    0.6456 C   0  0  0  0  0  0  0  0  0  0  0  0
   -2.0870   -0.0876   -1.5794 C   0  0  0  0  0  0  0  0  0  0  0  0
   -1.3588    0.7024    2.4654 C   0  0  0  0  0  0  0  0  0  0  0  0
   -2.6526    0.8464    1.9908 C   0  0  0  0  0  0  0  0  0  0  0  0
    1.6938   -1.8348   -1.2545 H   0  0  0  0  0  0  0  0  0  0  0  0
   -0.0013   -2.2522   -1.0559 H   0  0  0  0  0  0  0  0  0  0  0  0
    1.6668    0.2677   -2.0729 H   0  0  0  0  0  0  0  0  0  0  0  0
    0.6587    1.5396   -1.4049 H   0  0  0  0  0  0  0  0  0  0  0  0
    0.3026   -2.2646    1.4542 H   0  0  0  0  0  0  0  0  0  0  0  0
    1.9950   -1.8059    1.2415 H   0  0  0  0  0  0  0  0  0  0  0  0
   -3.8912    0.6873    0.2471 H   0  0  0  0  0  0  0  0  0  0  0  0
    0.7042   -4.2441    0.2241 H   0  0  0  0  0  0  0  0  0  0  0  0
    1.6594   -4.1476    1.5426 H   0  0  0  0  0  0  0  0  0  0  0  0
   -3.4583    1.1545    2.6472 H   0  0  0  0  0  0  0  0  0  0  0  0
   -1.1245    0.8956    3.5070 H   0  0  0  0  0  0  0  0  0  0  0  0
   -1.7165    1.9051   -2.1775 H   0  0  0  0  0  0  0  0  0  0  0  0
   -2.1425    0.8336   -3.4672 H   0  0  0  0  0  0  0  0  0  0  0  0
  1 14  1  0  0  0  0
  2 14  1  0  0  0  0
  3 14  1  0  0  0  0
  4 16  2  0  0  0  0
  5  9  1  0  0  0  0
  5 10  1  0  0  0  0
  5 11  1  0  0  0  0
  6 11  1  0  0  0  0
  6 17  2  0  0  0  0
  7 12  1  0  0  0  0
  7 26  1  0  0  0  0
  7 27  1  0  0  0  0
  8 16  1  0  0  0  0
  8 30  1  0  0  0  0
  8 31  1  0  0  0  0
  9 12  1  0  0  0  0
  9 19  1  0  0  0  0
  9 20  1  0  0  0  0
 10 14  1  0  0  0  0
 10 21  1  0  0  0  0
 10 22  1  0  0  0  0
 11 13  2  0  0  0  0
 12 23  1  0  0  0  0
 12 24  1  0  0  0  0
 13 15  1  0  0  0  0
 13 16  1  0  0  0  0
 15 18  2  0  0  0  0
 15 25  1  0  0  0  0
 17 18  1  0  0  0  0
 17 29  1  0  0  0  0
 18 28  1  0  0  0  0
M  END
>  <PUBCHEM_COMPOUND_CID>
107494247

>  <PUBCHEM_CONFORMER_RMSD>
0.8

>  <PUBCHEM_CONFORMER_DIVERSEORDER>
1
34
47
9
25
12
43
16
29
28
44
15
45
13
22
40
37
24
20
38
18
19
46
27
31
30
21
42
39
33
14
41
32
7
36
8
23
17
26
11
4
35
10
3
2
6
5

>  <PUBCHEM_MMFF94_PARTIAL_CHARGES>
25
1 -0.34
10 0.37
11 0.41
12 0.27
13 0.09
14 1.02
15 -0.15
16 0.54
17 0.16
18 -0.15
2 -0.34
25 0.15
26 0.36
27 0.36
28 0.15
29 0.15
3 -0.34
30 0.37
31 0.37
4 -0.57
5 -0.84
6 -0.62
7 -0.99
8 -0.8
9 0.37

>  <PUBCHEM_EFFECTIVE_ROTOR_COUNT>
6

>  <PUBCHEM_PHARMACOPHORE_FEATURES>
7
1 4 acceptor
1 5 cation
1 6 acceptor
1 7 cation
1 7 donor
1 8 donor
6 6 11 13 15 17 18 rings

>  <PUBCHEM_HEAVY_ATOM_COUNT>
18

>  <PUBCHEM_ATOM_DEF_STEREO_COUNT>
0

>  <PUBCHEM_ATOM_UDEF_STEREO_COUNT>
0

>  <PUBCHEM_BOND_DEF_STEREO_COUNT>
0

>  <PUBCHEM_BOND_UDEF_STEREO_COUNT>
0

>  <PUBCHEM_ISOTOPIC_ATOM_COUNT>
0

>  <PUBCHEM_COMPONENT_COUNT>
1

>  <PUBCHEM_CACTVS_TAUTO_COUNT>
2

>  <PUBCHEM_CONFORMER_ID>
06683B6700000001

>  <PUBCHEM_MMFF94_ENERGY>
61.3766

>  <PUBCHEM_FEATURE_SELFOVERLAP>
35.521

>  <PUBCHEM_SHAPE_FINGERPRINT>
12592029 89 18115285848304101898
13538477 17 17632294536765288751
13898156 1 17702940323249806291
14787075 74 17698178579319559923
14817 1 16758662389869009530
15309172 13 18116451395138352508
15775835 57 17987539085520318368
16945 1 18262228924573095254
19049666 15 17024027038725637336
19765921 60 18201449102699968456
19873495 37 17630634334115382009
20600515 1 16678682952472340326
20645476 183 17916875612555329849
20711985 344 16415189079705253845
21061003 4 17611204666578206091
22112679 90 17559670651073131506
229495 10 18337393738893234797
23419403 2 17533228457303360674
23557571 272 16443645544380585347
23559900 14 15866875662265800386
23598291 2 17986686869450413335
2748010 2 14491575795940882337
3286 77 17753353984051315475
430814 3 17630354998079890017
4340502 62 18338814376757163499
5845 1 17335890197925821678
68419 9 17703504389931628291
81228 2 17323251771431590666

>  <PUBCHEM_SHAPE_MULTIPOLES>
322.82
4.38
2.41
2.25
0.61
1.98
0.36
-1.44
0.1
2.52
-0.62
-1.85
-0.16
-1.54

>  <PUBCHEM_SHAPE_SELFOVERLAP>
668.162

>  <PUBCHEM_SHAPE_VOLUME>
185.6

>  <PUBCHEM_COORDINATE_TYPE>
2
5
10

$$$$
