107494155
 OpenBabel01182520543D

 31 31  0  0  0  0  0  0  0  0999 V2000
    3.3829    1.7372    1.0516 F   0  0  0  0  0  0  0  0  0  0  0  0
    1.4527    2.6354    0.5782 F   0  0  0  0  0  0  0  0  0  0  0  0
   -4.5464   -1.0394    0.6805 O   0  0  0  0  0  0  0  0  0  0  0  0
    1.6434   -0.0386   -0.2480 N   0  0  0  0  0  0  0  0  0  0  0  0
   -0.4517    0.9591   -0.7279 N   0  0  0  0  0  0  0  0  0  0  0  0
    3.2976   -3.3526   -0.0509 N   0  0  0  0  0  0  0  0  0  0  0  0
   -4.6119    0.9286   -0.4948 N   0  0  0  0  0  0  0  0  0  0  0  0
    2.4437   -1.0911    0.3310 C   0  0  0  0  0  0  0  0  0  0  0  0
    2.3232    1.0586   -0.9387 C   0  0  0  0  0  0  0  0  0  0  0  0
    0.2439   -0.0550   -0.1661 C   0  0  0  0  0  0  0  0  0  0  0  0
    2.4860   -2.2825   -0.6171 C   0  0  0  0  0  0  0  0  0  0  0  0
    2.6083    2.1836    0.0325 C   0  0  0  0  0  0  0  0  0  0  0  0
   -0.3404   -1.1239    0.4941 C   0  0  0  0  0  0  0  0  0  0  0  0
   -1.7276   -1.1542    0.5835 C   0  0  0  0  0  0  0  0  0  0  0  0
   -2.4777   -0.1288    0.0180 C   0  0  0  0  0  0  0  0  0  0  0  0
   -1.7979    0.8956   -0.6207 C   0  0  0  0  0  0  0  0  0  0  0  0
   -3.9280   -0.1318    0.0947 C   0  0  0  0  0  0  0  0  0  0  0  0
    2.1224   -1.3626    1.3440 H   0  0  0  0  0  0  0  0  0  0  0  0
    3.4723   -0.7304    0.4727 H   0  0  0  0  0  0  0  0  0  0  0  0
    3.2711    0.6962   -1.3545 H   0  0  0  0  0  0  0  0  0  0  0  0
    1.7335    1.4224   -1.7877 H   0  0  0  0  0  0  0  0  0  0  0  0
    2.9150   -1.9809   -1.5802 H   0  0  0  0  0  0  0  0  0  0  0  0
    1.4889   -2.6788   -0.8294 H   0  0  0  0  0  0  0  0  0  0  0  0
    3.1178    3.0206   -0.4524 H   0  0  0  0  0  0  0  0  0  0  0  0
    0.1911   -1.9465    0.9540 H   0  0  0  0  0  0  0  0  0  0  0  0
   -2.2038   -1.9847    1.0978 H   0  0  0  0  0  0  0  0  0  0  0  0
   -2.2805    1.7414   -1.0937 H   0  0  0  0  0  0  0  0  0  0  0  0
    4.2482   -3.0189    0.1036 H   0  0  0  0  0  0  0  0  0  0  0  0
    3.3688   -4.1153   -0.7232 H   0  0  0  0  0  0  0  0  0  0  0  0
   -4.1850    1.7051   -0.9838 H   0  0  0  0  0  0  0  0  0  0  0  0
   -5.6258    0.9550   -0.4500 H   0  0  0  0  0  0  0  0  0  0  0  0
  1 12  1  0  0  0  0
  2 12  1  0  0  0  0
  3 17  2  0  0  0  0
  4  8  1  0  0  0  0
  4  9  1  0  0  0  0
  4 10  1  0  0  0  0
  5 10  2  0  0  0  0
  5 16  1  0  0  0  0
  6 11  1  0  0  0  0
  6 28  1  0  0  0  0
  6 29  1  0  0  0  0
  7 17  1  0  0  0  0
  7 30  1  0  0  0  0
  7 31  1  0  0  0  0
  8 11  1  0  0  0  0
  8 18  1  0  0  0  0
  8 19  1  0  0  0  0
  9 12  1  0  0  0  0
  9 20  1  0  0  0  0
  9 21  1  0  0  0  0
 10 13  1  0  0  0  0
 11 22  1  0  0  0  0
 11 23  1  0  0  0  0
 12 24  1  0  0  0  0
 13 14  2  0  0  0  0
 13 25  1  0  0  0  0
 14 15  1  0  0  0  0
 14 26  1  0  0  0  0
 15 16  2  0  0  0  0
 15 17  1  0  0  0  0
 16 27  1  0  0  0  0
M  END
>  <PUBCHEM_COMPOUND_CID>
107494155

>  <PUBCHEM_CONFORMER_RMSD>
0.8

>  <PUBCHEM_CONFORMER_DIVERSEORDER>
1
87
93
92
85
49
30
56
75
43
96
44
40
21
52
68
94
86
60
27
37
3
67
84
62
36
50
47
83
80
31
64
71
34
95
82
5
38
72
54
4
48
39
65
91
33
18
15
89
28
63
81
90
58
11
32
12
51
79
76
57
97
26
19
2
53
69
73
13
7
88
59
17
45
66
70
20
29
55
77
35
46
25
23
9
41
6
74
42
8
10
24
14
16
78
22
61

>  <PUBCHEM_MMFF94_PARTIAL_CHARGES>
24
1 -0.34
10 0.41
11 0.27
12 0.68
13 -0.15
14 -0.15
15 0.09
16 0.16
17 0.54
2 -0.34
25 0.15
26 0.15
27 0.15
28 0.36
29 0.36
3 -0.57
30 0.37
31 0.37
4 -0.84
5 -0.62
6 -0.99
7 -0.8
8 0.37
9 0.37

>  <PUBCHEM_EFFECTIVE_ROTOR_COUNT>
6

>  <PUBCHEM_PHARMACOPHORE_FEATURES>
6
1 3 acceptor
1 6 cation
1 6 donor
1 7 donor
3 4 5 10 cation
6 5 10 13 14 15 16 rings

>  <PUBCHEM_HEAVY_ATOM_COUNT>
17

>  <PUBCHEM_ATOM_DEF_STEREO_COUNT>
0

>  <PUBCHEM_ATOM_UDEF_STEREO_COUNT>
0

>  <PUBCHEM_BOND_DEF_STEREO_COUNT>
0

>  <PUBCHEM_BOND_UDEF_STEREO_COUNT>
0

>  <PUBCHEM_ISOTOPIC_ATOM_COUNT>
0

>  <PUBCHEM_COMPONENT_COUNT>
1

>  <PUBCHEM_CACTVS_TAUTO_COUNT>
2

>  <PUBCHEM_CONFORMER_ID>
06683B0B00000001

>  <PUBCHEM_MMFF94_ENERGY>
47.2195

>  <PUBCHEM_FEATURE_SELFOVERLAP>
30.446

>  <PUBCHEM_SHAPE_FINGERPRINT>
10608611 8 18334856125990665149
10980938 120 18339645641184735393
11132069 177 17967811674233809541
11680986 33 18334021617813076011
12032990 46 18187937136109212291
12507560 14 18200872846911678527
13296908 3 17967818253997145351
13380535 76 18262796418438437506
13533116 47 18411987949343291099
13675066 3 18114186350172735267
14178000 15 18270118998644570528
14178342 30 18046624778765069803
14252887 29 18187376470988449171
14289901 80 18201156646014069211
14866123 147 16754940061978367195
15219456 202 18407757058120833645
15442244 35 18268717103928524265
15536298 74 18408042909737855623
16945 1 18337114591129370157
17804303 29 18189622644194698295
18186145 218 18271257074889374121
19026448 5 17775568637438231271
19049666 15 18335417928787054213
20559304 39 18412829070958087176
20645477 70 18409161104642492895
20671657 53 18268718199192826302
20832881 197 18046350738540311475
21029758 11 18265615377516346982
21041028 32 18198903604643767752
21296965 67 18124031235253630190
21452121 103 18410003330190458745
221490 88 18335147474860111275
22943178 12 18187085061868498507
23526113 38 17968389939882606482
23559900 14 18333453135973114286
2748010 2 18041272188868010253
3286 77 18336267829874205479
495365 180 18272080621513826065
5104073 3 18334862706254882441
53812653 166 18266178511810509705
6049 1 18114457860297980933
7364860 26 18412263935008853926
9709674 26 18333736844544367491

>  <PUBCHEM_SHAPE_MULTIPOLES>
309.51
7.39
2.75
0.86
6.84
0.62
0
0.86
0.32
-4.04
0.16
-0.2
-0.14
0.95

>  <PUBCHEM_SHAPE_SELFOVERLAP>
635.962

>  <PUBCHEM_SHAPE_VOLUME>
178.3

>  <PUBCHEM_COORDINATE_TYPE>
2
5
10

$$$$
