107494046
 OpenBabel01182520543D

 31 31  0  0  1  0  0  0  0  0999 V2000
    3.2745    0.4761   -0.8610 F   0  0  0  0  0  0  0  0  0  0  0  0
    1.7783    2.0429   -1.1122 F   0  0  0  0  0  0  0  0  0  0  0  0
   -2.0888   -2.4171   -0.1788 O   0  0  0  0  0  0  0  0  0  0  0  0
    0.6665   -0.4124   -0.3347 N   0  0  0  0  0  0  0  0  0  0  0  0
   -0.0851    1.4781    0.8559 N   0  0  0  0  0  0  0  0  0  0  0  0
    2.4629   -1.9297    2.5339 N   0  0  0  0  0  0  0  0  0  0  0  0
   -2.1723   -1.2269   -2.1372 N   0  0  0  0  0  0  0  0  0  0  0  0
    1.2858   -1.4611    0.4401 C   0  0  0  0  0  0  0  0  0  0  0  0
    1.1623   -0.1557   -1.6880 C   0  0  0  0  0  0  0  0  0  0  0  0
   -0.3927    0.3485    0.1797 C   0  0  0  0  0  0  0  0  0  0  0  0
    1.8405   -0.8816    1.7349 C   0  0  0  0  0  0  0  0  0  0  0  0
   -1.6861   -0.1010   -0.0319 C   0  0  0  0  0  0  0  0  0  0  0  0
    2.2532    0.8924   -1.6491 C   0  0  0  0  0  0  0  0  0  0  0  0
   -2.7313    0.6576    0.4835 C   0  0  0  0  0  0  0  0  0  0  0  0
   -1.9858   -1.3249   -0.7623 C   0  0  0  0  0  0  0  0  0  0  0  0
   -2.4549    1.8258    1.1849 C   0  0  0  0  0  0  0  0  0  0  0  0
   -1.1271    2.1892    1.3422 C   0  0  0  0  0  0  0  0  0  0  0  0
    2.0964   -1.9412   -0.1227 H   0  0  0  0  0  0  0  0  0  0  0  0
    0.5524   -2.2471    0.6576 H   0  0  0  0  0  0  0  0  0  0  0  0
    1.5505   -1.0811   -2.1281 H   0  0  0  0  0  0  0  0  0  0  0  0
    0.3468    0.1933   -2.3312 H   0  0  0  0  0  0  0  0  0  0  0  0
    1.0495   -0.4284    2.3413 H   0  0  0  0  0  0  0  0  0  0  0  0
    2.5808   -0.1024    1.5245 H   0  0  0  0  0  0  0  0  0  0  0  0
    2.6463    1.1079   -2.6463 H   0  0  0  0  0  0  0  0  0  0  0  0
   -3.7641    0.3486    0.3460 H   0  0  0  0  0  0  0  0  0  0  0  0
    1.7706   -2.6393    2.7705 H   0  0  0  0  0  0  0  0  0  0  0  0
    2.7830   -1.5367    3.4182 H   0  0  0  0  0  0  0  0  0  0  0  0
   -3.2535    2.4328    1.5957 H   0  0  0  0  0  0  0  0  0  0  0  0
   -0.8582    3.0915    1.8813 H   0  0  0  0  0  0  0  0  0  0  0  0
   -2.1025   -0.3420   -2.6294 H   0  0  0  0  0  0  0  0  0  0  0  0
   -2.3881   -2.0470   -2.6941 H   0  0  0  0  0  0  0  0  0  0  0  0
  1 13  1  0  0  0  0
  2 13  1  0  0  0  0
  3 15  2  0  0  0  0
  4  8  1  0  0  0  0
  4  9  1  0  0  0  0
  4 10  1  0  0  0  0
  5 10  1  0  0  0  0
  5 17  2  0  0  0  0
  6 11  1  0  0  0  0
  6 26  1  0  0  0  0
  6 27  1  0  0  0  0
  7 15  1  0  0  0  0
  7 30  1  0  0  0  0
  7 31  1  0  0  0  0
  8 11  1  0  0  0  0
  8 18  1  0  0  0  0
  8 19  1  0  0  0  0
  9 13  1  0  0  0  0
  9 20  1  0  0  0  0
  9 21  1  0  0  0  0
 10 12  2  0  0  0  0
 11 22  1  0  0  0  0
 11 23  1  0  0  0  0
 12 14  1  0  0  0  0
 12 15  1  0  0  0  0
 13 24  1  0  0  0  0
 14 16  2  0  0  0  0
 14 25  1  0  0  0  0
 16 17  1  0  0  0  0
 16 28  1  0  0  0  0
 17 29  1  0  0  0  0
M  END
>  <PUBCHEM_COMPOUND_CID>
107494046

>  <PUBCHEM_CONFORMER_RMSD>
0.8

>  <PUBCHEM_CONFORMER_DIVERSEORDER>
1
66
59
64
27
25
29
63
68
57
65
58
41
46
74
21
13
67
72
33
23
70
16
8
55
37
9
56
39
62
61
17
47
51
6
54
71
43
52
18
53
20
14
12
28
22
26
34
49
31
42
36
24
40
32
69
35
30
19
60
73
10
48
44
15
50
7
38
45
75
4
11
5
2
3

>  <PUBCHEM_MMFF94_PARTIAL_CHARGES>
24
1 -0.34
10 0.41
11 0.27
12 0.09
13 0.68
14 -0.15
15 0.54
16 -0.15
17 0.16
2 -0.34
25 0.15
26 0.36
27 0.36
28 0.15
29 0.15
3 -0.57
30 0.37
31 0.37
4 -0.84
5 -0.62
6 -0.99
7 -0.8
8 0.37
9 0.37

>  <PUBCHEM_EFFECTIVE_ROTOR_COUNT>
6

>  <PUBCHEM_PHARMACOPHORE_FEATURES>
7
1 3 acceptor
1 4 cation
1 5 acceptor
1 6 cation
1 6 donor
1 7 donor
6 5 10 12 14 16 17 rings

>  <PUBCHEM_HEAVY_ATOM_COUNT>
17

>  <PUBCHEM_ATOM_DEF_STEREO_COUNT>
0

>  <PUBCHEM_ATOM_UDEF_STEREO_COUNT>
0

>  <PUBCHEM_BOND_DEF_STEREO_COUNT>
0

>  <PUBCHEM_BOND_UDEF_STEREO_COUNT>
0

>  <PUBCHEM_ISOTOPIC_ATOM_COUNT>
0

>  <PUBCHEM_COMPONENT_COUNT>
1

>  <PUBCHEM_CACTVS_TAUTO_COUNT>
2

>  <PUBCHEM_CONFORMER_ID>
06683A9E00000001

>  <PUBCHEM_MMFF94_ENERGY>
58.9459

>  <PUBCHEM_FEATURE_SELFOVERLAP>
35.521

>  <PUBCHEM_SHAPE_FINGERPRINT>
11578080 2 17973687420927872452
12423570 1 15962627563528521978
12716301 132 17774725277127407859
13538477 17 18410863148420373483
13898156 1 18410012108950461930
14761567 1 18119234315008407895
14787075 74 17472401631777280746
14817 1 17701515369117702112
16945 1 17981927186751313909
19765921 60 18117016543978119680
20511035 2 17552365375886436795
20645476 183 18334870381023939841
20711985 344 18060142059132262255
22112679 90 18337952290441214936
22344851 12 17034503168314294580
22802520 49 17344660104152299860
232386 152 18271226283873268403
23419403 2 16754577553800337501
23557571 272 17417807374332358922
23559900 14 17416988149004170444
2748010 2 17630039597425721969
298252 57 17693984766813701444
430814 3 18121248426888947389
4340502 62 17532677761403143569
5845 1 17463953684551706894
68419 9 18409733936798385555
81228 2 17775562044579094347
88987 49 17917423177492772233

>  <PUBCHEM_SHAPE_MULTIPOLES>
309.51
4.16
2.37
2.09
0.61
0.02
0.59
0.23
0.27
-1.62
0.06
2.18
-0.46
-1.71

>  <PUBCHEM_SHAPE_SELFOVERLAP>
636.034

>  <PUBCHEM_SHAPE_VOLUME>
178.4

>  <PUBCHEM_COORDINATE_TYPE>
2
5
10

$$$$
