108069219
 OpenBabel01182520543D

 23 23  0  0  0  0  0  0  0  0999 V2000
   -3.1780   -2.0028    0.0103 F   0  0  0  0  0  0  0  0  0  0  0  0
    1.7378    0.5619   -1.4301 O   0  0  0  0  0  0  0  0  0  0  0  0
    1.9579   -0.9144    0.3445 N   0  0  0  0  0  0  0  0  0  0  0  0
   -2.1023    1.4423    0.3771 N   0  0  0  0  0  0  0  0  0  0  0  0
    0.0364    2.4381    0.1422 N   0  0  0  0  0  0  0  0  0  0  0  0
   -0.1993    0.0691   -0.2041 C   0  0  0  0  0  0  0  0  0  0  0  0
    3.3789   -1.1366    0.2026 C   0  0  0  0  0  0  0  0  0  0  0  0
    1.2217   -0.0689   -0.4920 C   0  0  0  0  0  0  0  0  0  0  0  0
   -0.7873    1.2849    0.1058 C   0  0  0  0  0  0  0  0  0  0  0  0
   -1.0134   -1.0577   -0.2380 C   0  0  0  0  0  0  0  0  0  0  0  0
    4.1808   -0.0047    0.8112 C   0  0  0  0  0  0  0  0  0  0  0  0
   -2.3712   -0.9360    0.0355 C   0  0  0  0  0  0  0  0  0  0  0  0
   -2.8620    0.3247    0.3348 C   0  0  0  0  0  0  0  0  0  0  0  0
    3.6153   -2.0824    0.6998 H   0  0  0  0  0  0  0  0  0  0  0  0
    3.6156   -1.2358   -0.8619 H   0  0  0  0  0  0  0  0  0  0  0  0
    1.4818   -1.3868    1.1077 H   0  0  0  0  0  0  0  0  0  0  0  0
   -0.6069   -2.0362   -0.4796 H   0  0  0  0  0  0  0  0  0  0  0  0
    3.9634    0.9483    0.3179 H   0  0  0  0  0  0  0  0  0  0  0  0
    3.9479    0.1116    1.8750 H   0  0  0  0  0  0  0  0  0  0  0  0
    5.2528   -0.2017    0.7146 H   0  0  0  0  0  0  0  0  0  0  0  0
   -3.9138    0.4727    0.5555 H   0  0  0  0  0  0  0  0  0  0  0  0
    1.0065    2.3327    0.4123 H   0  0  0  0  0  0  0  0  0  0  0  0
   -0.4212    3.3132    0.3676 H   0  0  0  0  0  0  0  0  0  0  0  0
  1 12  1  0  0  0  0
  2  8  2  0  0  0  0
  3  7  1  0  0  0  0
  3  8  1  0  0  0  0
  3 16  1  0  0  0  0
  4  9  1  0  0  0  0
  4 13  2  0  0  0  0
  5  9  1  0  0  0  0
  5 22  1  0  0  0  0
  5 23  1  0  0  0  0
  6  8  1  0  0  0  0
  6  9  2  0  0  0  0
  6 10  1  0  0  0  0
  7 11  1  0  0  0  0
  7 14  1  0  0  0  0
  7 15  1  0  0  0  0
 10 12  2  0  0  0  0
 10 17  1  0  0  0  0
 11 18  1  0  0  0  0
 11 19  1  0  0  0  0
 11 20  1  0  0  0  0
 12 13  1  0  0  0  0
 13 21  1  0  0  0  0
M  END
>  <PUBCHEM_COMPOUND_CID>
108069219

>  <PUBCHEM_CONFORMER_RMSD>
0.6

>  <PUBCHEM_CONFORMER_DIVERSEORDER>
1
4
3
7
6
5
8
2

>  <PUBCHEM_MMFF94_PARTIAL_CHARGES>
17
1 -0.19
10 -0.15
12 0.19
13 0.16
16 0.37
17 0.15
2 -0.57
21 0.15
22 0.4
23 0.4
3 -0.73
4 -0.62
5 -0.9
6 0.09
7 0.3
8 0.54
9 0.41

>  <PUBCHEM_EFFECTIVE_ROTOR_COUNT>
3

>  <PUBCHEM_PHARMACOPHORE_FEATURES>
6
1 2 acceptor
1 3 donor
1 4 acceptor
1 5 cation
1 5 donor
6 4 6 9 10 12 13 rings

>  <PUBCHEM_HEAVY_ATOM_COUNT>
13

>  <PUBCHEM_ATOM_DEF_STEREO_COUNT>
0

>  <PUBCHEM_ATOM_UDEF_STEREO_COUNT>
0

>  <PUBCHEM_BOND_DEF_STEREO_COUNT>
0

>  <PUBCHEM_BOND_UDEF_STEREO_COUNT>
0

>  <PUBCHEM_ISOTOPIC_ATOM_COUNT>
0

>  <PUBCHEM_COMPONENT_COUNT>
1

>  <PUBCHEM_CACTVS_TAUTO_COUNT>
7

>  <PUBCHEM_CONFORMER_ID>
0671016300000001

>  <PUBCHEM_MMFF94_ENERGY>
34.2594

>  <PUBCHEM_FEATURE_SELFOVERLAP>
30.446

>  <PUBCHEM_SHAPE_FINGERPRINT>
10130415 120 18334299777211911315
10857977 72 18201718457231340713
11132069 177 18411982425234373200
12382932 28 18341613668193120754
13024252 1 15719681952778379289
13214271 11 18273205396381927668
15219456 202 17489029254129859534
16945 1 18270414793121549165
17804303 29 17981613663108669478
18186145 218 11602820168827250726
20361792 2 16732987479538251870
20528008 55 18271795783762429880
20645464 45 17418094291032718087
20871998 184 18202562865061017423
21501502 16 18339368590298821577
21501925 9 18339076094124572182
21650355 55 18411128121963921624
232386 152 18409454703879064614
23402539 116 18200300027803724229
23552423 10 18048046452006065253
23559900 14 18270113488650156434
2748010 2 18197499734864919709
369184 2 18271521992308034458
53812654 25 18412829113591203815
75552 356 18411980226221719098
77492 1 17968108503354567710

>  <PUBCHEM_SHAPE_MULTIPOLES>
239.45
5.81
1.83
0.82
4.29
0.49
-0.15
-1.94
1.43
-1.07
0.1
0.42
0.09
-0.23

>  <PUBCHEM_SHAPE_SELFOVERLAP>
494.243

>  <PUBCHEM_SHAPE_VOLUME>
138.2

>  <PUBCHEM_COORDINATE_TYPE>
2
5
10

$$$$
