108069573
 OpenBabel01182520543D

 26 26  0  0  0  0  0  0  0  0999 V2000
   -3.4938    1.7668   -0.0285 F   0  0  0  0  0  0  0  0  0  0  0  0
    1.3497    0.1457    1.8590 O   0  0  0  0  0  0  0  0  0  0  0  0
    1.9431    0.5945   -0.3569 N   0  0  0  0  0  0  0  0  0  0  0  0
   -2.0874   -1.5625   -0.3409 N   0  0  0  0  0  0  0  0  0  0  0  0
    0.1227   -2.3552   -0.0126 N   0  0  0  0  0  0  0  0  0  0  0  0
    3.3567    0.8664   -0.1047 C   0  0  0  0  0  0  0  0  0  0  0  0
    1.0558    0.2531    0.6690 C   0  0  0  0  0  0  0  0  0  0  0  0
   -0.3471   -0.0191    0.3176 C   0  0  0  0  0  0  0  0  0  0  0  0
    1.5185    0.7021   -1.7457 C   0  0  0  0  0  0  0  0  0  0  0  0
    4.1905   -0.3941   -0.2056 C   0  0  0  0  0  0  0  0  0  0  0  0
   -0.8055   -1.2838   -0.0142 C   0  0  0  0  0  0  0  0  0  0  0  0
   -1.2632    1.0270    0.3140 C   0  0  0  0  0  0  0  0  0  0  0  0
   -2.5910    0.7798   -0.0168 C   0  0  0  0  0  0  0  0  0  0  0  0
   -2.9490   -0.5207   -0.3337 C   0  0  0  0  0  0  0  0  0  0  0  0
    3.7102    1.6298   -0.8061 H   0  0  0  0  0  0  0  0  0  0  0  0
    3.4545    1.2750    0.9073 H   0  0  0  0  0  0  0  0  0  0  0  0
    1.6740    1.7345   -2.0743 H   0  0  0  0  0  0  0  0  0  0  0  0
    0.4746    0.4437   -1.9197 H   0  0  0  0  0  0  0  0  0  0  0  0
    2.1380    0.0373   -2.3552 H   0  0  0  0  0  0  0  0  0  0  0  0
    3.8458   -1.1531    0.5047 H   0  0  0  0  0  0  0  0  0  0  0  0
    4.1341   -0.8286   -1.2088 H   0  0  0  0  0  0  0  0  0  0  0  0
    5.2404   -0.1750    0.0115 H   0  0  0  0  0  0  0  0  0  0  0  0
   -0.9547    2.0379    0.5665 H   0  0  0  0  0  0  0  0  0  0  0  0
   -3.9721   -0.7657   -0.5987 H   0  0  0  0  0  0  0  0  0  0  0  0
    1.0891   -2.1589   -0.2424 H   0  0  0  0  0  0  0  0  0  0  0  0
   -0.2413   -3.2687   -0.2555 H   0  0  0  0  0  0  0  0  0  0  0  0
  1 13  1  0  0  0  0
  2  7  2  0  0  0  0
  3  6  1  0  0  0  0
  3  7  1  0  0  0  0
  3  9  1  0  0  0  0
  4 11  1  0  0  0  0
  4 14  2  0  0  0  0
  5 11  1  0  0  0  0
  5 25  1  0  0  0  0
  5 26  1  0  0  0  0
  6 10  1  0  0  0  0
  6 15  1  0  0  0  0
  6 16  1  0  0  0  0
  7  8  1  0  0  0  0
  8 11  2  0  0  0  0
  8 12  1  0  0  0  0
  9 17  1  0  0  0  0
  9 18  1  0  0  0  0
  9 19  1  0  0  0  0
 10 20  1  0  0  0  0
 10 21  1  0  0  0  0
 10 22  1  0  0  0  0
 12 13  2  0  0  0  0
 12 23  1  0  0  0  0
 13 14  1  0  0  0  0
 14 24  1  0  0  0  0
M  END
>  <PUBCHEM_COMPOUND_CID>
108069573

>  <PUBCHEM_CONFORMER_RMSD>
0.6

>  <PUBCHEM_CONFORMER_DIVERSEORDER>
1
11
7
10
6
16
8
15
3
5
14
9
12
13
4
2

>  <PUBCHEM_MMFF94_PARTIAL_CHARGES>
17
1 -0.19
11 0.41
12 -0.15
13 0.19
14 0.16
2 -0.57
23 0.15
24 0.15
25 0.4
26 0.4
3 -0.66
4 -0.62
5 -0.9
6 0.3
7 0.54
8 0.09
9 0.3

>  <PUBCHEM_EFFECTIVE_ROTOR_COUNT>
3

>  <PUBCHEM_PHARMACOPHORE_FEATURES>
5
1 2 acceptor
1 4 acceptor
1 5 cation
1 5 donor
6 4 8 11 12 13 14 rings

>  <PUBCHEM_HEAVY_ATOM_COUNT>
14

>  <PUBCHEM_ATOM_DEF_STEREO_COUNT>
0

>  <PUBCHEM_ATOM_UDEF_STEREO_COUNT>
0

>  <PUBCHEM_BOND_DEF_STEREO_COUNT>
0

>  <PUBCHEM_BOND_UDEF_STEREO_COUNT>
0

>  <PUBCHEM_ISOTOPIC_ATOM_COUNT>
0

>  <PUBCHEM_COMPONENT_COUNT>
1

>  <PUBCHEM_CACTVS_TAUTO_COUNT>
4

>  <PUBCHEM_CONFORMER_ID>
067102C500000001

>  <PUBCHEM_MMFF94_ENERGY>
43.4952

>  <PUBCHEM_FEATURE_SELFOVERLAP>
25.372

>  <PUBCHEM_SHAPE_FINGERPRINT>
10465860 250 17704067379093461722
12138202 97 17917991697955460357
12423570 1 17827053148669717041
124424 183 17632576037564570152
12716758 59 18341610477074468506
14325111 11 18411138047701979108
14943859 89 18342178860304021921
14993402 34 18040990765188229390
15207287 21 17131834270115113798
15309172 13 15068620517577867064
15775835 57 18259704484340770005
16945 1 18268978938410082915
18186145 218 18059587883718119768
18511873 20 18040721368097599836
20201158 50 17203336614986168204
20645476 183 17895464925501537291
20653085 51 18041573528026422348
23402539 116 18272926107507017852
23559900 14 18131350792108482232
2748010 2 17692232450691222131
305870 269 18261393291256544775
57812782 119 17775004591972731020
77492 1 17822562893474112576
9981440 41 17033045598792342836

>  <PUBCHEM_SHAPE_MULTIPOLES>
260.03
5.76
1.64
1.1
2.55
0.65
-0.01
-1.2
0.66
-0.97
0.12
0.61
-0.18
-0.26

>  <PUBCHEM_SHAPE_SELFOVERLAP>
534.953

>  <PUBCHEM_SHAPE_VOLUME>
151.1

>  <PUBCHEM_COORDINATE_TYPE>
2
5
10

$$$$
