108068992
 OpenBabel01182520543D

 29 29  0  0  0  0  0  0  0  0999 V2000
    3.7871   -1.8201   -0.8786 F   0  0  0  0  0  0  0  0  0  0  0  0
   -0.6623    0.1862    2.1204 O   0  0  0  0  0  0  0  0  0  0  0  0
   -1.2977   -1.0217    0.2445 N   0  0  0  0  0  0  0  0  0  0  0  0
    2.5733    1.5664   -0.4121 N   0  0  0  0  0  0  0  0  0  0  0  0
    0.5411    2.3793    0.4991 N   0  0  0  0  0  0  0  0  0  0  0  0
   -3.6518   -0.3009    0.2790 C   0  0  0  0  0  0  0  0  0  0  0  0
   -2.6234   -1.3489    0.6915 C   0  0  0  0  0  0  0  0  0  0  0  0
   -3.7608   -0.1502   -1.2401 C   0  0  0  0  0  0  0  0  0  0  0  0
   -4.8346    0.8566   -1.6224 C   0  0  0  0  0  0  0  0  0  0  0  0
   -0.4119   -0.2692    1.0075 C   0  0  0  0  0  0  0  0  0  0  0  0
    0.9123    0.0049    0.3924 C   0  0  0  0  0  0  0  0  0  0  0  0
    1.3739    1.2878    0.1461 C   0  0  0  0  0  0  0  0  0  0  0  0
    1.7345   -1.0609    0.0435 C   0  0  0  0  0  0  0  0  0  0  0  0
    2.9756   -0.8144   -0.5330 C   0  0  0  0  0  0  0  0  0  0  0  0
    3.3449    0.5051   -0.7379 C   0  0  0  0  0  0  0  0  0  0  0  0
   -3.3890    0.6681    0.7214 H   0  0  0  0  0  0  0  0  0  0  0  0
   -4.6281   -0.5868    0.6886 H   0  0  0  0  0  0  0  0  0  0  0  0
   -2.8800   -2.3245    0.2650 H   0  0  0  0  0  0  0  0  0  0  0  0
   -2.6203   -1.4510    1.7823 H   0  0  0  0  0  0  0  0  0  0  0  0
   -3.9991   -1.1192   -1.6938 H   0  0  0  0  0  0  0  0  0  0  0  0
   -2.8039    0.1795   -1.6602 H   0  0  0  0  0  0  0  0  0  0  0  0
   -1.0116   -1.3447   -0.6753 H   0  0  0  0  0  0  0  0  0  0  0  0
   -4.6102    1.8451   -1.2091 H   0  0  0  0  0  0  0  0  0  0  0  0
   -4.8966    0.9495   -2.7112 H   0  0  0  0  0  0  0  0  0  0  0  0
   -5.8160    0.5434   -1.2520 H   0  0  0  0  0  0  0  0  0  0  0  0
    1.4245   -2.0877    0.2180 H   0  0  0  0  0  0  0  0  0  0  0  0
    4.3028    0.7504   -1.1843 H   0  0  0  0  0  0  0  0  0  0  0  0
   -0.4630    2.2540    0.4628 H   0  0  0  0  0  0  0  0  0  0  0  0
    0.9058    3.3053    0.3109 H   0  0  0  0  0  0  0  0  0  0  0  0
  1 14  1  0  0  0  0
  2 10  2  0  0  0  0
  3  7  1  0  0  0  0
  3 10  1  0  0  0  0
  3 22  1  0  0  0  0
  4 12  1  0  0  0  0
  4 15  2  0  0  0  0
  5 12  1  0  0  0  0
  5 28  1  0  0  0  0
  5 29  1  0  0  0  0
  6  7  1  0  0  0  0
  6  8  1  0  0  0  0
  6 16  1  0  0  0  0
  6 17  1  0  0  0  0
  7 18  1  0  0  0  0
  7 19  1  0  0  0  0
  8  9  1  0  0  0  0
  8 20  1  0  0  0  0
  8 21  1  0  0  0  0
  9 23  1  0  0  0  0
  9 24  1  0  0  0  0
  9 25  1  0  0  0  0
 10 11  1  0  0  0  0
 11 12  2  0  0  0  0
 11 13  1  0  0  0  0
 13 14  2  0  0  0  0
 13 26  1  0  0  0  0
 14 15  1  0  0  0  0
 15 27  1  0  0  0  0
M  END
>  <PUBCHEM_COMPOUND_CID>
108068992

>  <PUBCHEM_CONFORMER_RMSD>
0.6

>  <PUBCHEM_CONFORMER_DIVERSEORDER>
1
23
57
11
53
38
14
41
43
56
30
27
9
16
24
25
48
58
8
45
51
36
19
29
55
28
21
6
31
39
52
22
12
40
34
5
3
54
20
35
7
50
44
42
2
37
47
26
4
49
10
18
17
13
15
33
32
46

>  <PUBCHEM_MMFF94_PARTIAL_CHARGES>
17
1 -0.19
10 0.54
11 0.09
12 0.41
13 -0.15
14 0.19
15 0.16
2 -0.57
22 0.37
26 0.15
27 0.15
28 0.4
29 0.4
3 -0.73
4 -0.62
5 -0.9
7 0.3

>  <PUBCHEM_EFFECTIVE_ROTOR_COUNT>
5

>  <PUBCHEM_PHARMACOPHORE_FEATURES>
7
1 2 acceptor
1 3 donor
1 4 acceptor
1 5 cation
1 5 donor
1 9 hydrophobe
6 4 11 12 13 14 15 rings

>  <PUBCHEM_HEAVY_ATOM_COUNT>
15

>  <PUBCHEM_ATOM_DEF_STEREO_COUNT>
0

>  <PUBCHEM_ATOM_UDEF_STEREO_COUNT>
0

>  <PUBCHEM_BOND_DEF_STEREO_COUNT>
0

>  <PUBCHEM_BOND_UDEF_STEREO_COUNT>
0

>  <PUBCHEM_ISOTOPIC_ATOM_COUNT>
0

>  <PUBCHEM_COMPONENT_COUNT>
1

>  <PUBCHEM_CACTVS_TAUTO_COUNT>
7

>  <PUBCHEM_CONFORMER_ID>
0671008000000001

>  <PUBCHEM_MMFF94_ENERGY>
32.8663

>  <PUBCHEM_FEATURE_SELFOVERLAP>
35.521

>  <PUBCHEM_SHAPE_FINGERPRINT>
10498660 4 17096069343429195397
10610426 29 16988275387340649026
11578080 2 17417234438728181768
116883 192 18127137376812995164
12346177 29 14405193846300255067
12654215 9 18335699472699285460
13134695 92 18202003243775984304
13549 16 18412260614898744975
13764800 53 15863793894080616121
14341114 328 12829493602263918453
16945 1 18122373369545701280
17041 50 18335420183771192789
17834072 14 18341607105831135288
18186145 218 18186526509608095795
19107657 9 15213298625521280463
200 152 17846785091584169930
20361792 2 16343708776458468099
20645477 70 18342186565412521678
20671657 53 18272660038377180328
21503847 285 12901817264561017878
221357 26 18410003322275920053
22926399 65 17312820502428148413
23253445 4 9294996999591533999
23402539 116 18059018284833343522
23402655 69 18409729560464191965
23557571 272 17896601872285512491
25 1 18187366519338364115
2748010 2 17475824394611410112
276578 36 14779257605478296865
3009799 131 18260544477582038358
4028521 119 17894906322339564165
5161694 15 18407759240043516863
5281201 14 18260554454384638463
6049 1 18115879666598657275
93112 12 18411698828929180527
9882013 296 11169917178116356317

>  <PUBCHEM_SHAPE_MULTIPOLES>
280.61
7.89
1.73
1.37
6.25
0.51
-0.21
0.37
4.68
-0.68
-0.02
0.68
0.04
1.22

>  <PUBCHEM_SHAPE_SELFOVERLAP>
569.893

>  <PUBCHEM_SHAPE_VOLUME>
163.4

>  <PUBCHEM_COORDINATE_TYPE>
2
5
10

$$$$
