108069175
 OpenBabel01182520543D

 29 29  0  0  0  0  0  0  0  0999 V2000
    3.3244   -2.3549    0.1257 F   0  0  0  0  0  0  0  0  0  0  0  0
   -1.1017    1.0732    1.3406 O   0  0  0  0  0  0  0  0  0  0  0  0
   -1.5422   -0.4343   -0.3644 N   0  0  0  0  0  0  0  0  0  0  0  0
    2.8525    1.1988   -0.4304 N   0  0  0  0  0  0  0  0  0  0  0  0
    0.9111    2.5520   -0.2871 N   0  0  0  0  0  0  0  0  0  0  0  0
   -2.9882   -0.4048   -0.2406 C   0  0  0  0  0  0  0  0  0  0  0  0
   -3.6091   -1.2651   -1.3472 C   0  0  0  0  0  0  0  0  0  0  0  0
   -3.3847   -0.9594    1.1317 C   0  0  0  0  0  0  0  0  0  0  0  0
   -3.4793    1.0410   -0.3777 C   0  0  0  0  0  0  0  0  0  0  0  0
   -0.7178    0.3193    0.4503 C   0  0  0  0  0  0  0  0  0  0  0  0
    0.7378    0.1983    0.1792 C   0  0  0  0  0  0  0  0  0  0  0  0
    1.5268    1.2798   -0.1781 C   0  0  0  0  0  0  0  0  0  0  0  0
    1.3486   -1.0466    0.2842 C   0  0  0  0  0  0  0  0  0  0  0  0
    2.7105   -1.1699    0.0323 C   0  0  0  0  0  0  0  0  0  0  0  0
    3.4112   -0.0273   -0.3184 C   0  0  0  0  0  0  0  0  0  0  0  0
   -3.3307   -0.8925   -2.3399 H   0  0  0  0  0  0  0  0  0  0  0  0
   -3.2634   -2.3034   -1.2813 H   0  0  0  0  0  0  0  0  0  0  0  0
   -4.7029   -1.2708   -1.2842 H   0  0  0  0  0  0  0  0  0  0  0  0
   -3.0294   -0.3407    1.9615 H   0  0  0  0  0  0  0  0  0  0  0  0
   -2.9793   -1.9672    1.2807 H   0  0  0  0  0  0  0  0  0  0  0  0
   -4.4750   -1.0235    1.2255 H   0  0  0  0  0  0  0  0  0  0  0  0
   -3.2064    1.6773    0.4687 H   0  0  0  0  0  0  0  0  0  0  0  0
   -3.0824    1.5094   -1.2861 H   0  0  0  0  0  0  0  0  0  0  0  0
   -4.5736    1.0713   -0.4434 H   0  0  0  0  0  0  0  0  0  0  0  0
   -1.1273   -1.0286   -1.0769 H   0  0  0  0  0  0  0  0  0  0  0  0
    0.7787   -1.9281    0.5654 H   0  0  0  0  0  0  0  0  0  0  0  0
    4.4754   -0.0704   -0.5251 H   0  0  0  0  0  0  0  0  0  0  0  0
   -0.0602    2.5976   -0.5694 H   0  0  0  0  0  0  0  0  0  0  0  0
    1.5125    3.3246   -0.5463 H   0  0  0  0  0  0  0  0  0  0  0  0
  1 14  1  0  0  0  0
  2 10  2  0  0  0  0
  3  6  1  0  0  0  0
  3 10  1  0  0  0  0
  3 25  1  0  0  0  0
  4 12  1  0  0  0  0
  4 15  2  0  0  0  0
  5 12  1  0  0  0  0
  5 28  1  0  0  0  0
  5 29  1  0  0  0  0
  6  7  1  0  0  0  0
  6  8  1  0  0  0  0
  6  9  1  0  0  0  0
  7 16  1  0  0  0  0
  7 17  1  0  0  0  0
  7 18  1  0  0  0  0
  8 19  1  0  0  0  0
  8 20  1  0  0  0  0
  8 21  1  0  0  0  0
  9 22  1  0  0  0  0
  9 23  1  0  0  0  0
  9 24  1  0  0  0  0
 10 11  1  0  0  0  0
 11 12  2  0  0  0  0
 11 13  1  0  0  0  0
 13 14  2  0  0  0  0
 13 26  1  0  0  0  0
 14 15  1  0  0  0  0
 15 27  1  0  0  0  0
M  END
>  <PUBCHEM_COMPOUND_CID>
108069175

>  <PUBCHEM_CONFORMER_RMSD>
0.6

>  <PUBCHEM_CONFORMER_DIVERSEORDER>
1
2
5
4
3

>  <PUBCHEM_MMFF94_PARTIAL_CHARGES>
17
1 -0.19
10 0.54
11 0.09
12 0.41
13 -0.15
14 0.19
15 0.16
2 -0.57
25 0.37
26 0.15
27 0.15
28 0.4
29 0.4
3 -0.73
4 -0.62
5 -0.9
6 0.3

>  <PUBCHEM_EFFECTIVE_ROTOR_COUNT>
3

>  <PUBCHEM_PHARMACOPHORE_FEATURES>
7
1 2 acceptor
1 3 donor
1 4 acceptor
1 5 cation
1 5 donor
4 6 7 8 9 hydrophobe
6 4 11 12 13 14 15 rings

>  <PUBCHEM_HEAVY_ATOM_COUNT>
15

>  <PUBCHEM_ATOM_DEF_STEREO_COUNT>
0

>  <PUBCHEM_ATOM_UDEF_STEREO_COUNT>
0

>  <PUBCHEM_BOND_DEF_STEREO_COUNT>
0

>  <PUBCHEM_BOND_UDEF_STEREO_COUNT>
0

>  <PUBCHEM_ISOTOPIC_ATOM_COUNT>
0

>  <PUBCHEM_COMPONENT_COUNT>
1

>  <PUBCHEM_CACTVS_TAUTO_COUNT>
7

>  <PUBCHEM_CONFORMER_ID>
0671013700000001

>  <PUBCHEM_MMFF94_ENERGY>
49.2363

>  <PUBCHEM_FEATURE_SELFOVERLAP>
35.521

>  <PUBCHEM_SHAPE_FINGERPRINT>
11578080 2 17844221021915887313
116883 192 18052257289261040876
11769659 78 18272082786209128111
12932764 1 18059575840629698369
13296908 3 18333734610944725411
13571099 22 18341888576396703981
13705890 14 18186803599454793586
14144814 61 18411139147150199547
14250199 8 18189331437017319485
14251717 144 18336822078260827630
14576447 43 18342170124293296734
15375462 189 18059019500652148739
15442244 35 18267022760657480024
15477762 27 18409728499480578142
15757776 16 18410008836707706230
16945 1 18265331887851477096
18186145 218 17168142317122510843
19422 9 18272089417997465719
200 152 18342454846096230850
20645477 70 18409161100073342383
20671657 53 18410294679259903550
21501925 9 18410003309185062250
221490 88 18262246632597007098
2255824 54 18268713990224966700
23402539 116 18341604902650198742
23402655 69 18409166588920006533
23463225 33 18341896247045024230
2838139 119 15286502005702956318
57096353 35 18341335603404606212
58051976 100 18340767130750885751
6049 1 17822014250431261413
7364860 26 18271239551175088176
77492 1 18060147547731207993
81228 2 17976827480255092632
93112 12 18408599279890933551

>  <PUBCHEM_SHAPE_MULTIPOLES>
280.61
6.91
1.95
0.98
2.05
0.26
-0.06
-2.24
1.1
-1.17
0.11
0.88
-0.11
-0.39

>  <PUBCHEM_SHAPE_SELFOVERLAP>
579.941

>  <PUBCHEM_SHAPE_VOLUME>
162.1

>  <PUBCHEM_COORDINATE_TYPE>
2
5
10

$$$$
