108069456
 OpenBabel01182520543D

 20 20  0  0  0  0  0  0  0  0999 V2000
   -3.3788   -0.8489   -0.0085 F   0  0  0  0  0  0  0  0  0  0  0  0
    1.9235   -1.7835    1.1173 O   0  0  0  0  0  0  0  0  0  0  0  0
    1.6068    1.4347    0.0120 N   0  0  0  0  0  0  0  0  0  0  0  0
   -0.7537    1.6548   -0.0143 N   0  0  0  0  0  0  0  0  0  0  0  0
    1.9554   -1.7991   -1.1756 N   0  0  0  0  0  0  0  0  0  0  0  0
    0.2432   -0.5473    0.0236 C   0  0  0  0  0  0  0  0  0  0  0  0
    0.3218    0.8360    0.0067 C   0  0  0  0  0  0  0  0  0  0  0  0
   -1.0204   -1.1276    0.0183 C   0  0  0  0  0  0  0  0  0  0  0  0
   -2.1509   -0.3182   -0.0031 C   0  0  0  0  0  0  0  0  0  0  0  0
    1.4210   -1.4038    0.0462 C   0  0  0  0  0  0  0  0  0  0  0  0
   -1.9652    1.0547   -0.0187 C   0  0  0  0  0  0  0  0  0  0  0  0
    1.7972    2.8481   -0.0041 C   0  0  0  0  0  0  0  0  0  0  0  0
   -1.1376   -2.2079    0.0311 H   0  0  0  0  0  0  0  0  0  0  0  0
    2.3893    0.8539   -0.2684 H   0  0  0  0  0  0  0  0  0  0  0  0
   -2.8145    1.7295   -0.0356 H   0  0  0  0  0  0  0  0  0  0  0  0
    1.3434    3.3200    0.8736 H   0  0  0  0  0  0  0  0  0  0  0  0
    1.3724    3.2962   -0.9082 H   0  0  0  0  0  0  0  0  0  0  0  0
    2.8666    3.0805    0.0117 H   0  0  0  0  0  0  0  0  0  0  0  0
    1.5542   -1.5043   -2.0602 H   0  0  0  0  0  0  0  0  0  0  0  0
    2.7715   -2.4003   -1.2182 H   0  0  0  0  0  0  0  0  0  0  0  0
  1  9  1  0  0  0  0
  2 10  2  0  0  0  0
  3  7  1  0  0  0  0
  3 12  1  0  0  0  0
  3 14  1  0  0  0  0
  4  7  1  0  0  0  0
  4 11  2  0  0  0  0
  5 10  1  0  0  0  0
  5 19  1  0  0  0  0
  5 20  1  0  0  0  0
  6  7  2  0  0  0  0
  6  8  1  0  0  0  0
  6 10  1  0  0  0  0
  8  9  2  0  0  0  0
  8 13  1  0  0  0  0
  9 11  1  0  0  0  0
 11 15  1  0  0  0  0
 12 16  1  0  0  0  0
 12 17  1  0  0  0  0
 12 18  1  0  0  0  0
M  END
>  <PUBCHEM_COMPOUND_CID>
108069456

>  <PUBCHEM_CONFORMER_RMSD>
0.6

>  <PUBCHEM_CONFORMER_DIVERSEORDER>
1
4
2
3

>  <PUBCHEM_MMFF94_PARTIAL_CHARGES>
17
1 -0.19
10 0.54
11 0.16
12 0.37
13 0.15
14 0.4
15 0.15
19 0.37
2 -0.57
20 0.37
3 -0.87
4 -0.62
5 -0.8
6 0.09
7 0.41
8 -0.15
9 0.19

>  <PUBCHEM_EFFECTIVE_ROTOR_COUNT>
2

>  <PUBCHEM_PHARMACOPHORE_FEATURES>
6
1 2 acceptor
1 3 cation
1 3 donor
1 4 acceptor
1 5 donor
6 4 6 7 8 9 11 rings

>  <PUBCHEM_HEAVY_ATOM_COUNT>
12

>  <PUBCHEM_ATOM_DEF_STEREO_COUNT>
0

>  <PUBCHEM_ATOM_UDEF_STEREO_COUNT>
0

>  <PUBCHEM_BOND_DEF_STEREO_COUNT>
0

>  <PUBCHEM_BOND_UDEF_STEREO_COUNT>
0

>  <PUBCHEM_ISOTOPIC_ATOM_COUNT>
0

>  <PUBCHEM_COMPONENT_COUNT>
1

>  <PUBCHEM_CACTVS_TAUTO_COUNT>
7

>  <PUBCHEM_CONFORMER_ID>
0671025000000001

>  <PUBCHEM_MMFF94_ENERGY>
43.6325

>  <PUBCHEM_FEATURE_SELFOVERLAP>
30.446

>  <PUBCHEM_SHAPE_FINGERPRINT>
1 1 18194116541374798668
12423570 1 18130208411499949947
13380535 76 18120931969409022003
14128692 85 18340496555752325559
161256 15 18409455794890408997
16945 1 18410008874850604953
17990270 104 18341614780579061863
193761 8 18410573951045466017
20645476 183 17100873324184212812
20645477 70 18340200891074574871
20653091 64 18410013212772881483
20711985 344 17548702876610100678
21040471 1 17689716780370561200
21501502 16 18410854343911710833
21650355 55 17829302723748761874
23552423 10 18334860523789113453
241688 4 18122624946606231160
2748010 2 18267576901653894396
528862 383 18337382854797071835
7364860 26 18343304790154374660
81228 2 17620751687339701160
81539 233 18117270578587617781

>  <PUBCHEM_SHAPE_MULTIPOLES>
218.87
3.42
2.68
0.76
2.06
0.91
0.02
-0.12
0.04
-2.24
0.03
-0.33
-0.34
0.03

>  <PUBCHEM_SHAPE_SELFOVERLAP>
456.323

>  <PUBCHEM_SHAPE_VOLUME>
125.2

>  <PUBCHEM_COORDINATE_TYPE>
2
5
10

$$$$
