10988044
 OpenBabel01182520543D

 32 33  0  0  0  0  0  0  0  0999 V2000
    0.0957    2.4983   -0.6352 O   0  0  0  0  0  0  0  0  0  0  0  0
   -0.9658    0.4296   -0.3419 N   0  0  0  0  0  0  0  0  0  0  0  0
    0.3363   -1.4963    0.1636 N   0  0  0  0  0  0  0  0  0  0  0  0
    2.6508   -1.3594    0.3653 N   0  0  0  0  0  0  0  0  0  0  0  0
   -2.0440   -1.7923   -0.0131 C   0  0  0  0  0  0  0  0  0  0  0  0
   -0.8072   -0.9268   -0.0605 C   0  0  0  0  0  0  0  0  0  0  0  0
   -2.3511   -2.3324   -1.4019 C   0  0  0  0  0  0  0  0  0  0  0  0
   -1.8633   -2.9207    0.9927 C   0  0  0  0  0  0  0  0  0  0  0  0
   -2.2910    0.9968   -0.5850 C   0  0  0  0  0  0  0  0  0  0  0  0
    0.1376    1.2944   -0.3994 C   0  0  0  0  0  0  0  0  0  0  0  0
    1.4426    0.6561   -0.1459 C   0  0  0  0  0  0  0  0  0  0  0  0
    1.4906   -0.7049    0.1231 C   0  0  0  0  0  0  0  0  0  0  0  0
    2.6311    1.3844   -0.1690 C   0  0  0  0  0  0  0  0  0  0  0  0
   -2.8674    1.4528    0.7168 C   0  0  0  0  0  0  0  0  0  0  0  0
    3.8320    0.7307    0.0769 C   0  0  0  0  0  0  0  0  0  0  0  0
    3.7887   -0.6285    0.3363 C   0  0  0  0  0  0  0  0  0  0  0  0
   -3.2157    2.7181    0.9770 C   0  0  0  0  0  0  0  0  0  0  0  0
   -2.9108   -1.2301    0.3365 H   0  0  0  0  0  0  0  0  0  0  0  0
   -1.5579   -3.0065   -1.7457 H   0  0  0  0  0  0  0  0  0  0  0  0
   -2.4366   -1.5380   -2.1493 H   0  0  0  0  0  0  0  0  0  0  0  0
   -3.2899   -2.8962   -1.3994 H   0  0  0  0  0  0  0  0  0  0  0  0
   -1.5945   -2.5299    1.9805 H   0  0  0  0  0  0  0  0  0  0  0  0
   -1.0833   -3.6270    0.6867 H   0  0  0  0  0  0  0  0  0  0  0  0
   -2.7934   -3.4895    1.1018 H   0  0  0  0  0  0  0  0  0  0  0  0
   -2.1895    1.8423   -1.2767 H   0  0  0  0  0  0  0  0  0  0  0  0
   -2.9686    0.2947   -1.0715 H   0  0  0  0  0  0  0  0  0  0  0  0
    2.6393    2.4506   -0.3751 H   0  0  0  0  0  0  0  0  0  0  0  0
   -3.0217    0.7148    1.4995 H   0  0  0  0  0  0  0  0  0  0  0  0
    4.7731    1.2685    0.0661 H   0  0  0  0  0  0  0  0  0  0  0  0
    4.6988   -1.1851    0.5346 H   0  0  0  0  0  0  0  0  0  0  0  0
   -3.6328    2.9857    1.9417 H   0  0  0  0  0  0  0  0  0  0  0  0
   -3.0917    3.5041    0.2404 H   0  0  0  0  0  0  0  0  0  0  0  0
  1 10  2  0  0  0  0
  2  6  1  0  0  0  0
  2  9  1  0  0  0  0
  2 10  1  0  0  0  0
  3  6  2  0  0  0  0
  3 12  1  0  0  0  0
  4 12  1  0  0  0  0
  4 16  2  0  0  0  0
  5  6  1  0  0  0  0
  5  7  1  0  0  0  0
  5  8  1  0  0  0  0
  5 18  1  0  0  0  0
  7 19  1  0  0  0  0
  7 20  1  0  0  0  0
  7 21  1  0  0  0  0
  8 22  1  0  0  0  0
  8 23  1  0  0  0  0
  8 24  1  0  0  0  0
  9 14  1  0  0  0  0
  9 25  1  0  0  0  0
  9 26  1  0  0  0  0
 10 11  1  0  0  0  0
 11 12  2  0  0  0  0
 11 13  1  0  0  0  0
 13 15  2  0  0  0  0
 13 27  1  0  0  0  0
 14 17  2  0  0  0  0
 14 28  1  0  0  0  0
 15 16  1  0  0  0  0
 15 29  1  0  0  0  0
 16 30  1  0  0  0  0
 17 31  1  0  0  0  0
 17 32  1  0  0  0  0
M  END
>  <PUBCHEM_COMPOUND_CID>
10988044

>  <PUBCHEM_CONFORMER_RMSD>
0.6

>  <PUBCHEM_CONFORMER_DIVERSEORDER>
1
2
5
4
3
6

>  <PUBCHEM_MMFF94_PARTIAL_CHARGES>
21
1 -0.57
10 0.54
11 0.09
12 0.49
13 -0.15
14 -0.29
15 -0.15
16 0.16
17 -0.3
2 -0.42
27 0.15
28 0.15
29 0.15
3 -0.63
30 0.15
31 0.15
32 0.15
4 -0.62
5 0.06
6 0.45
9 0.44

>  <PUBCHEM_EFFECTIVE_ROTOR_COUNT>
3

>  <PUBCHEM_PHARMACOPHORE_FEATURES>
6
1 1 acceptor
1 17 hydrophobe
1 4 acceptor
3 5 7 8 hydrophobe
6 2 3 6 10 11 12 rings
6 4 11 12 13 15 16 rings

>  <PUBCHEM_HEAVY_ATOM_COUNT>
17

>  <PUBCHEM_ATOM_DEF_STEREO_COUNT>
0

>  <PUBCHEM_ATOM_UDEF_STEREO_COUNT>
0

>  <PUBCHEM_BOND_DEF_STEREO_COUNT>
0

>  <PUBCHEM_BOND_UDEF_STEREO_COUNT>
0

>  <PUBCHEM_ISOTOPIC_ATOM_COUNT>
0

>  <PUBCHEM_COMPONENT_COUNT>
1

>  <PUBCHEM_CACTVS_TAUTO_COUNT>
1

>  <PUBCHEM_CONFORMER_ID>
00A7AA0C00000001

>  <PUBCHEM_MMFF94_ENERGY>
43.2457

>  <PUBCHEM_FEATURE_SELFOVERLAP>
30.481

>  <PUBCHEM_SHAPE_FINGERPRINT>
10382601 240 17617957837268553185
10493431 412 18339366262173456793
10967382 1 18264485088083966326
11132069 177 18337943524581950824
11578080 2 17129568301436447483
12251169 10 18410014312374426680
12382932 28 18410857642193334760
12390115 104 18196948862581717560
12491281 212 18410578374734790816
12553582 1 17979078506800766550
13140716 1 18408882919547083218
13380535 21 18409456864563995486
13380535 76 18340765940448949431
13583140 156 16443338724538668740
14178342 30 18337381729953588032
14617773 55 18268155438249302725
14790565 3 17977684021589160116
15309172 13 18192714440832585937
15442244 35 18410008815085098722
15502708 68 17907583523640489001
15906896 17 18343022190297204711
16945 1 18191296088101885644
19591789 44 17689441485978331590
20157964 124 17619349806622380377
20261772 1 18338531788988089193
20510252 161 18198343051181708720
20525323 117 18410853308450059134
21041028 32 18048891976453223259
21501502 16 18409163333677362438
21524375 3 18269835307602041017
21731228 192 18196946478457506913
23184049 59 18264213499942999841
2334 1 18335980982056840062
23388829 49 18122903402247150452
23402539 116 18201990037331428053
23419403 2 16177831049176011789
23557571 272 18272098222922859886
23558518 356 18116156760413534632
25147074 1 18334573568734774508
2748010 2 18337667615782564190
298252 57 16700883883190806517
5104073 3 18409158936158444416
58807428 26 18120370960764903763
6438718 38 18130513006575518687
69090 78 18410008793568116161
6992083 37 18334018280628937221
7832392 63 18410857638056518968
81228 2 18335972177278846833

>  <PUBCHEM_SHAPE_MULTIPOLES>
329.04
5.85
3.2
0.95
3.75
0.21
0.05
-0.96
-0.85
-3.35
-0.39
-0.65
0.19
-0.91

>  <PUBCHEM_SHAPE_SELFOVERLAP>
696.255

>  <PUBCHEM_SHAPE_VOLUME>
184

>  <PUBCHEM_COORDINATE_TYPE>
2
5
10

$$$$
