11008476
 OpenBabel01182520543D

 24 24  0  0  0  0  0  0  0  0999 V2000
    1.0063    1.0882   -1.0819 O   0  0  0  0  0  0  0  0  0  0  0  0
    1.4732   -0.9971   -0.1819 N   0  0  0  0  0  0  0  0  0  0  0  0
   -2.9426    0.8174    0.4016 N   0  0  0  0  0  0  0  0  0  0  0  0
   -1.0866    2.2521    0.0591 N   0  0  0  0  0  0  0  0  0  0  0  0
   -0.7976   -0.1222   -0.1994 C   0  0  0  0  0  0  0  0  0  0  0  0
    0.6102    0.0466   -0.5317 C   0  0  0  0  0  0  0  0  0  0  0  0
   -1.6333    0.9445    0.0901 C   0  0  0  0  0  0  0  0  0  0  0  0
    2.8979   -0.9688   -0.4232 C   0  0  0  0  0  0  0  0  0  0  0  0
   -1.3408   -1.4018   -0.1670 C   0  0  0  0  0  0  0  0  0  0  0  0
   -2.6840   -1.5731    0.1495 C   0  0  0  0  0  0  0  0  0  0  0  0
   -3.4351   -0.4415    0.4234 C   0  0  0  0  0  0  0  0  0  0  0  0
    3.5809   -0.3681    0.7600 C   0  0  0  0  0  0  0  0  0  0  0  0
    4.3517    0.7239    0.7013 C   0  0  0  0  0  0  0  0  0  0  0  0
    3.2309   -2.0018   -0.5626 H   0  0  0  0  0  0  0  0  0  0  0  0
    3.0994   -0.4115   -1.3441 H   0  0  0  0  0  0  0  0  0  0  0  0
    1.1183   -1.7977    0.3310 H   0  0  0  0  0  0  0  0  0  0  0  0
   -0.7616   -2.2876   -0.4109 H   0  0  0  0  0  0  0  0  0  0  0  0
   -3.1310   -2.5604    0.1740 H   0  0  0  0  0  0  0  0  0  0  0  0
   -4.4878   -0.5210    0.6738 H   0  0  0  0  0  0  0  0  0  0  0  0
    3.4526   -0.8610    1.7206 H   0  0  0  0  0  0  0  0  0  0  0  0
   -0.1132    2.3759    0.3087 H   0  0  0  0  0  0  0  0  0  0  0  0
   -1.7232    3.0115    0.2690 H   0  0  0  0  0  0  0  0  0  0  0  0
    4.8280    1.1088    1.5964 H   0  0  0  0  0  0  0  0  0  0  0  0
    4.5192    1.2505   -0.2318 H   0  0  0  0  0  0  0  0  0  0  0  0
  1  6  2  0  0  0  0
  2  6  1  0  0  0  0
  2  8  1  0  0  0  0
  2 16  1  0  0  0  0
  3  7  1  0  0  0  0
  3 11  2  0  0  0  0
  4  7  1  0  0  0  0
  4 21  1  0  0  0  0
  4 22  1  0  0  0  0
  5  6  1  0  0  0  0
  5  7  2  0  0  0  0
  5  9  1  0  0  0  0
  8 12  1  0  0  0  0
  8 14  1  0  0  0  0
  8 15  1  0  0  0  0
  9 10  2  0  0  0  0
  9 17  1  0  0  0  0
 10 11  1  0  0  0  0
 10 18  1  0  0  0  0
 11 19  1  0  0  0  0
 12 13  2  0  0  0  0
 12 20  1  0  0  0  0
 13 23  1  0  0  0  0
 13 24  1  0  0  0  0
M  END
>  <PUBCHEM_COMPOUND_CID>
11008476

>  <PUBCHEM_CONFORMER_RMSD>
0.6

>  <PUBCHEM_CONFORMER_DIVERSEORDER>
1
18
10
17
13
9
8
16
5
3
15
20
24
23
4
12
7
11
19
22
2
14
21
6

>  <PUBCHEM_MMFF94_PARTIAL_CHARGES>
22
1 -0.57
10 -0.15
11 0.16
12 -0.29
13 -0.3
16 0.37
17 0.15
18 0.15
19 0.15
2 -0.73
20 0.15
21 0.4
22 0.4
23 0.15
24 0.15
3 -0.62
4 -0.9
5 0.09
6 0.54
7 0.41
8 0.44
9 -0.15

>  <PUBCHEM_EFFECTIVE_ROTOR_COUNT>
4

>  <PUBCHEM_PHARMACOPHORE_FEATURES>
7
1 1 acceptor
1 13 hydrophobe
1 2 donor
1 3 acceptor
1 4 cation
1 4 donor
6 3 5 7 9 10 11 rings

>  <PUBCHEM_HEAVY_ATOM_COUNT>
13

>  <PUBCHEM_ATOM_DEF_STEREO_COUNT>
0

>  <PUBCHEM_ATOM_UDEF_STEREO_COUNT>
0

>  <PUBCHEM_BOND_DEF_STEREO_COUNT>
0

>  <PUBCHEM_BOND_UDEF_STEREO_COUNT>
0

>  <PUBCHEM_ISOTOPIC_ATOM_COUNT>
0

>  <PUBCHEM_COMPONENT_COUNT>
1

>  <PUBCHEM_CACTVS_TAUTO_COUNT>
5

>  <PUBCHEM_CONFORMER_ID>
00A7F9DC00000001

>  <PUBCHEM_MMFF94_ENERGY>
36.7328

>  <PUBCHEM_FEATURE_SELFOVERLAP>
35.521

>  <PUBCHEM_SHAPE_FINGERPRINT>
10608611 8 18272087133058819072
11132069 177 18411139125543481158
12251169 10 18408600375181433824
12382932 28 18412546496206108674
13214271 11 18271801349844827766
13296909 8 18409724045520461940
14144814 61 18335703814768913882
15219456 202 17917715660734608150
16945 1 18336560313062968743
17804303 29 18125450704738877934
20361792 2 16660363679755951046
20510252 161 18200315416186262193
20528008 55 18271800211683742946
20645464 45 17703794716872885319
20645477 70 13262396644640553058
20871998 184 18273498970366225815
21501925 9 18335421317479145559
21650355 55 18410006676038417651
23402539 116 18272642455540784631
23552423 10 17831314052938814581
23559900 14 18270963432423359814
2748010 2 17687197391541392247
449060 50 18202001049374302010
53812654 25 18341336690321319855
75552 356 18410011035208787227
90316 7 18187649050687463157
9882013 296 18334289903403955152

>  <PUBCHEM_SHAPE_MULTIPOLES>
246.72
6.8
1.68
0.82
5.27
0.43
-0.03
-0.48
2.08
-0.78
-0.05
0.35
0.05
0.12

>  <PUBCHEM_SHAPE_SELFOVERLAP>
506.995

>  <PUBCHEM_SHAPE_VOLUME>
140.7

>  <PUBCHEM_COORDINATE_TYPE>
2
5
10

$$$$
