112574395
 OpenBabel01182520543D

 18 18  0  0  0  0  0  0  0  0999 V2000
    1.9174   -1.5066    0.8141 F   0  0  0  0  0  0  0  0  0  0  0  0
    3.4116   -0.0121    0.3121 F   0  0  0  0  0  0  0  0  0  0  0  0
    1.4693    1.5680   -0.7225 O   0  0  0  0  0  0  0  0  0  0  0  0
   -2.5214    0.5858    0.3493 N   0  0  0  0  0  0  0  0  0  0  0  0
   -0.8453    2.2594    0.4510 N   0  0  0  0  0  0  0  0  0  0  0  0
   -0.2366    0.0278   -0.2107 C   0  0  0  0  0  0  0  0  0  0  0  0
   -1.2206    0.9176    0.1894 C   0  0  0  0  0  0  0  0  0  0  0  0
    1.1583    0.4146   -0.3710 C   0  0  0  0  0  0  0  0  0  0  0  0
   -0.6118   -1.2872   -0.4629 C   0  0  0  0  0  0  0  0  0  0  0  0
    2.2680   -0.5995   -0.1342 C   0  0  0  0  0  0  0  0  0  0  0  0
   -1.9407   -1.6667   -0.3095 C   0  0  0  0  0  0  0  0  0  0  0  0
   -2.8484   -0.7011    0.0950 C   0  0  0  0  0  0  0  0  0  0  0  0
    0.1024   -2.0338   -0.7978 H   0  0  0  0  0  0  0  0  0  0  0  0
    2.4918   -1.1276   -1.0653 H   0  0  0  0  0  0  0  0  0  0  0  0
   -2.2571   -2.6849   -0.5047 H   0  0  0  0  0  0  0  0  0  0  0  0
   -3.8970   -0.9459    0.2283 H   0  0  0  0  0  0  0  0  0  0  0  0
    0.0849    2.4415    0.8070 H   0  0  0  0  0  0  0  0  0  0  0  0
   -1.5870    2.8873    0.7368 H   0  0  0  0  0  0  0  0  0  0  0  0
  1 10  1  0  0  0  0
  2 10  1  0  0  0  0
  3  8  2  0  0  0  0
  4  7  1  0  0  0  0
  4 12  2  0  0  0  0
  5  7  1  0  0  0  0
  5 17  1  0  0  0  0
  5 18  1  0  0  0  0
  6  7  2  0  0  0  0
  6  8  1  0  0  0  0
  6  9  1  0  0  0  0
  8 10  1  0  0  0  0
  9 11  2  0  0  0  0
  9 13  1  0  0  0  0
 10 14  1  0  0  0  0
 11 12  1  0  0  0  0
 11 15  1  0  0  0  0
 12 16  1  0  0  0  0
M  END
>  <PUBCHEM_COMPOUND_CID>
112574395

>  <PUBCHEM_CONFORMER_RMSD>
0.6

>  <PUBCHEM_CONFORMER_DIVERSEORDER>
1
11
4
9
3
10
2
6
5
7
8

>  <PUBCHEM_MMFF94_PARTIAL_CHARGES>
17
1 -0.34
10 0.74
11 -0.15
12 0.16
13 0.15
15 0.15
16 0.15
17 0.4
18 0.4
2 -0.34
3 -0.57
4 -0.62
5 -0.9
6 0.09
7 0.41
8 0.42
9 -0.15

>  <PUBCHEM_EFFECTIVE_ROTOR_COUNT>
2

>  <PUBCHEM_PHARMACOPHORE_FEATURES>
5
1 3 acceptor
1 4 acceptor
1 5 cation
1 5 donor
6 4 6 7 9 11 12 rings

>  <PUBCHEM_HEAVY_ATOM_COUNT>
12

>  <PUBCHEM_ATOM_DEF_STEREO_COUNT>
0

>  <PUBCHEM_ATOM_UDEF_STEREO_COUNT>
0

>  <PUBCHEM_BOND_DEF_STEREO_COUNT>
0

>  <PUBCHEM_BOND_UDEF_STEREO_COUNT>
0

>  <PUBCHEM_ISOTOPIC_ATOM_COUNT>
0

>  <PUBCHEM_COMPONENT_COUNT>
1

>  <PUBCHEM_CACTVS_TAUTO_COUNT>
5

>  <PUBCHEM_CONFORMER_ID>
06B5BFBB00000001

>  <PUBCHEM_MMFF94_ENERGY>
36.9323

>  <PUBCHEM_FEATURE_SELFOVERLAP>
25.372

>  <PUBCHEM_SHAPE_FINGERPRINT>
10130415 120 18410012178113095787
10857977 72 18202275939828602851
14128692 85 18337392741880359094
15076042 46 18198339554988678234
16945 1 18411145697017582463
18185500 45 18338799047290746855
20871998 184 18059857281072792527
21040471 1 17981899548615450685
22445834 79 18334575720002011874
23402539 116 18059846256397795093
23463225 33 18410578387788517111
23552423 10 18261958581993275991
2748010 2 18269556198904215397
369184 2 18273492368827151795
5084963 1 17845384262220200271
53812654 25 18201435947399620479
75552 356 18413387631212299850

>  <PUBCHEM_SHAPE_MULTIPOLES>
216.58
4.08
1.86
0.73
1.28
0.5
-0.01
-0.9
0.45
-0.39
0.08
0.12
-0.03
-0.49

>  <PUBCHEM_SHAPE_SELFOVERLAP>
455.699

>  <PUBCHEM_SHAPE_VOLUME>
122.3

>  <PUBCHEM_COORDINATE_TYPE>
2
5
10

$$$$
