113328065
 OpenBabel01182520543D

 32 32  0  0  0  0  0  0  0  0999 V2000
   -3.9636    1.0121   -1.5445 F   0  0  0  0  0  0  0  0  0  0  0  0
   -5.4926    0.5266   -0.0614 F   0  0  0  0  0  0  0  0  0  0  0  0
   -4.3906    2.4028    0.0800 F   0  0  0  0  0  0  0  0  0  0  0  0
    0.0003   -2.4809   -0.8261 O   0  0  0  0  0  0  0  0  0  0  0  0
   -0.6829   -1.1381    0.9379 N   0  0  0  0  0  0  0  0  0  0  0  0
    2.8117    1.1291    0.3757 N   0  0  0  0  0  0  0  0  0  0  0  0
    5.1403    1.1588   -0.1272 N   0  0  0  0  0  0  0  0  0  0  0  0
   -3.0544   -1.0506    0.2707 C   0  0  0  0  0  0  0  0  0  0  0  0
   -1.9801   -1.7315    1.1130 C   0  0  0  0  0  0  0  0  0  0  0  0
   -3.2303    0.4270    0.6288 C   0  0  0  0  0  0  0  0  0  0  0  0
   -4.2799    1.0933   -0.2347 C   0  0  0  0  0  0  0  0  0  0  0  0
    0.2148   -1.5683   -0.0326 C   0  0  0  0  0  0  0  0  0  0  0  0
    1.5251   -0.8692   -0.0673 C   0  0  0  0  0  0  0  0  0  0  0  0
    2.6641   -1.5044   -0.5497 C   0  0  0  0  0  0  0  0  0  0  0  0
    1.6507    0.4362    0.3798 C   0  0  0  0  0  0  0  0  0  0  0  0
    3.8973    0.4791   -0.1003 C   0  0  0  0  0  0  0  0  0  0  0  0
    3.8768   -0.8243   -0.5698 C   0  0  0  0  0  0  0  0  0  0  0  0
    5.2935    2.5023    0.3277 C   0  0  0  0  0  0  0  0  0  0  0  0
   -2.7956   -1.1400   -0.7916 H   0  0  0  0  0  0  0  0  0  0  0  0
   -4.0051   -1.5776    0.4153 H   0  0  0  0  0  0  0  0  0  0  0  0
   -2.2300   -1.6621    2.1771 H   0  0  0  0  0  0  0  0  0  0  0  0
   -1.9274   -2.7940    0.8515 H   0  0  0  0  0  0  0  0  0  0  0  0
   -3.5152    0.5217    1.6829 H   0  0  0  0  0  0  0  0  0  0  0  0
   -2.2841    0.9642    0.4999 H   0  0  0  0  0  0  0  0  0  0  0  0
   -0.4203   -0.4123    1.5960 H   0  0  0  0  0  0  0  0  0  0  0  0
    2.6259   -2.5288   -0.9099 H   0  0  0  0  0  0  0  0  0  0  0  0
    0.8088    1.0148    0.7448 H   0  0  0  0  0  0  0  0  0  0  0  0
    4.7692   -1.3147   -0.9449 H   0  0  0  0  0  0  0  0  0  0  0  0
    5.9724    0.5957   -0.2664 H   0  0  0  0  0  0  0  0  0  0  0  0
    4.6674    3.1904   -0.2496 H   0  0  0  0  0  0  0  0  0  0  0  0
    6.3338    2.8205    0.2073 H   0  0  0  0  0  0  0  0  0  0  0  0
    5.0375    2.5939    1.3882 H   0  0  0  0  0  0  0  0  0  0  0  0
  1 11  1  0  0  0  0
  2 11  1  0  0  0  0
  3 11  1  0  0  0  0
  4 12  2  0  0  0  0
  5  9  1  0  0  0  0
  5 12  1  0  0  0  0
  5 25  1  0  0  0  0
  6 15  1  0  0  0  0
  6 16  2  0  0  0  0
  7 16  1  0  0  0  0
  7 18  1  0  0  0  0
  7 29  1  0  0  0  0
  8  9  1  0  0  0  0
  8 10  1  0  0  0  0
  8 19  1  0  0  0  0
  8 20  1  0  0  0  0
  9 21  1  0  0  0  0
  9 22  1  0  0  0  0
 10 11  1  0  0  0  0
 10 23  1  0  0  0  0
 10 24  1  0  0  0  0
 12 13  1  0  0  0  0
 13 14  1  0  0  0  0
 13 15  2  0  0  0  0
 14 17  2  0  0  0  0
 14 26  1  0  0  0  0
 15 27  1  0  0  0  0
 16 17  1  0  0  0  0
 17 28  1  0  0  0  0
 18 30  1  0  0  0  0
 18 31  1  0  0  0  0
 18 32  1  0  0  0  0
M  END
>  <PUBCHEM_COMPOUND_CID>
113328065

>  <PUBCHEM_CONFORMER_RMSD>
0.8

>  <PUBCHEM_CONFORMER_DIVERSEORDER>
1
34
25
6
35
29
22
3
19
26
15
30
10
28
13
20
36
5
8
7
33
21
12
4
2
27
24
23
32
31
18
16
9
17
11
14

>  <PUBCHEM_MMFF94_PARTIAL_CHARGES>
21
1 -0.34
11 1.02
12 0.54
13 0.09
14 -0.15
15 0.16
16 0.41
17 -0.15
18 0.37
2 -0.34
25 0.37
26 0.15
27 0.15
28 0.15
29 0.4
3 -0.34
4 -0.57
5 -0.73
6 -0.62
7 -0.87
9 0.3

>  <PUBCHEM_EFFECTIVE_ROTOR_COUNT>
7

>  <PUBCHEM_PHARMACOPHORE_FEATURES>
5
1 4 acceptor
1 5 donor
1 7 donor
3 6 7 16 cation
6 6 13 14 15 16 17 rings

>  <PUBCHEM_HEAVY_ATOM_COUNT>
18

>  <PUBCHEM_ATOM_DEF_STEREO_COUNT>
0

>  <PUBCHEM_ATOM_UDEF_STEREO_COUNT>
0

>  <PUBCHEM_BOND_DEF_STEREO_COUNT>
0

>  <PUBCHEM_BOND_UDEF_STEREO_COUNT>
0

>  <PUBCHEM_ISOTOPIC_ATOM_COUNT>
0

>  <PUBCHEM_COMPONENT_COUNT>
1

>  <PUBCHEM_CACTVS_TAUTO_COUNT>
9

>  <PUBCHEM_CONFORMER_ID>
06C13FC100000001

>  <PUBCHEM_MMFF94_ENERGY>
40.6674

>  <PUBCHEM_FEATURE_SELFOVERLAP>
25.372

>  <PUBCHEM_SHAPE_FINGERPRINT>
10014705 185 18409450318712180563
10498660 4 18409732858803902761
11089746 13 18409162195632679574
11796584 16 10663008202865736772
12403259 415 18338813272148864066
12596602 18 14996295742151228741
12633257 1 16081091519080273782
13103583 49 12396581780657340133
13740256 8 8935009170142741400
14123255 352 18335701658542233561
14178342 30 17095814324739534274
14251764 38 18335707186302891349
14252887 29 12685091471359313682
15188451 53 14996858731323469281
15196674 1 18411140237955939114
17834072 32 18410577305193033864
193927 3 11239997879716273623
20281475 54 9583508837450185763
20645477 56 18334301984904534747
20645477 70 17988656159617644462
21401589 2 18260556619301480617
231179 274 18260831479532715090
23402655 69 18059858367720383198
23559900 14 18340208475760167498
2838139 119 18412258432871015124
2916195 48 18333732412179926249
4028521 119 18409167671647078993
5104073 3 18186523189382274218
59682541 35 18187097174367221185

>  <PUBCHEM_SHAPE_MULTIPOLES>
327.8
11.91
2.47
0.92
1.85
0.39
0.07
9.5
0.98
-0.31
0.07
0.52
-0.12
1.25

>  <PUBCHEM_SHAPE_SELFOVERLAP>
668.232

>  <PUBCHEM_SHAPE_VOLUME>
190.3

>  <PUBCHEM_COORDINATE_TYPE>
2
5
10

$$$$
