113328061
 OpenBabel01182520543D

 29 29  0  0  0  0  0  0  0  0999 V2000
   -4.4592    1.7953    0.4633 F   0  0  0  0  0  0  0  0  0  0  0  0
   -3.7547    0.8496   -1.3710 F   0  0  0  0  0  0  0  0  0  0  0  0
   -5.1185   -0.2208   -0.0417 F   0  0  0  0  0  0  0  0  0  0  0  0
    0.8950   -1.7528   -1.1785 O   0  0  0  0  0  0  0  0  0  0  0  0
   -0.0467   -0.9347    0.7774 N   0  0  0  0  0  0  0  0  0  0  0  0
    4.3966    0.4508    0.1184 N   0  0  0  0  0  0  0  0  0  0  0  0
    3.6444   -1.7931   -0.0218 N   0  0  0  0  0  0  0  0  0  0  0  0
   -2.3868   -1.2541    0.0708 C   0  0  0  0  0  0  0  0  0  0  0  0
   -1.1773   -1.8215    0.8075 C   0  0  0  0  0  0  0  0  0  0  0  0
   -2.8819    0.0587    0.6822 C   0  0  0  0  0  0  0  0  0  0  0  0
   -4.0643    0.6213   -0.0772 C   0  0  0  0  0  0  0  0  0  0  0  0
    0.9116   -0.9739   -0.2290 C   0  0  0  0  0  0  0  0  0  0  0  0
    2.0333   -0.0082   -0.1019 C   0  0  0  0  0  0  0  0  0  0  0  0
    3.3570   -0.4050   -0.0013 C   0  0  0  0  0  0  0  0  0  0  0  0
    1.7588    1.3547   -0.0783 C   0  0  0  0  0  0  0  0  0  0  0  0
    2.8017    2.2662    0.0434 C   0  0  0  0  0  0  0  0  0  0  0  0
    4.0911    1.7676    0.1377 C   0  0  0  0  0  0  0  0  0  0  0  0
   -2.1281   -1.0909   -0.9827 H   0  0  0  0  0  0  0  0  0  0  0  0
   -3.1946   -1.9952    0.0924 H   0  0  0  0  0  0  0  0  0  0  0  0
   -1.4223   -2.0013    1.8598 H   0  0  0  0  0  0  0  0  0  0  0  0
   -0.8932   -2.7812    0.3620 H   0  0  0  0  0  0  0  0  0  0  0  0
   -3.1671   -0.1034    1.7279 H   0  0  0  0  0  0  0  0  0  0  0  0
   -2.0806    0.8059    0.6775 H   0  0  0  0  0  0  0  0  0  0  0  0
    0.0524   -0.2628    1.5330 H   0  0  0  0  0  0  0  0  0  0  0  0
    0.7388    1.7214   -0.1576 H   0  0  0  0  0  0  0  0  0  0  0  0
    2.6115    3.3332    0.0631 H   0  0  0  0  0  0  0  0  0  0  0  0
    4.9396    2.4370    0.2340 H   0  0  0  0  0  0  0  0  0  0  0  0
    2.9580   -2.4357    0.3536 H   0  0  0  0  0  0  0  0  0  0  0  0
    4.6206   -2.0535    0.0503 H   0  0  0  0  0  0  0  0  0  0  0  0
  1 11  1  0  0  0  0
  2 11  1  0  0  0  0
  3 11  1  0  0  0  0
  4 12  2  0  0  0  0
  5  9  1  0  0  0  0
  5 12  1  0  0  0  0
  5 24  1  0  0  0  0
  6 14  1  0  0  0  0
  6 17  2  0  0  0  0
  7 14  1  0  0  0  0
  7 28  1  0  0  0  0
  7 29  1  0  0  0  0
  8  9  1  0  0  0  0
  8 10  1  0  0  0  0
  8 18  1  0  0  0  0
  8 19  1  0  0  0  0
  9 20  1  0  0  0  0
  9 21  1  0  0  0  0
 10 11  1  0  0  0  0
 10 22  1  0  0  0  0
 10 23  1  0  0  0  0
 12 13  1  0  0  0  0
 13 14  2  0  0  0  0
 13 15  1  0  0  0  0
 15 16  2  0  0  0  0
 15 25  1  0  0  0  0
 16 17  1  0  0  0  0
 16 26  1  0  0  0  0
 17 27  1  0  0  0  0
M  END
>  <PUBCHEM_COMPOUND_CID>
113328061

>  <PUBCHEM_CONFORMER_RMSD>
0.8

>  <PUBCHEM_CONFORMER_DIVERSEORDER>
1
33
27
34
10
2
19
30
4
26
6
9
28
21
12
7
17
35
3
5
22
29
16
20
15
8
13
24
14
25
11
31
18
32
23

>  <PUBCHEM_MMFF94_PARTIAL_CHARGES>
21
1 -0.34
11 1.02
12 0.54
13 0.09
14 0.41
15 -0.15
16 -0.15
17 0.16
2 -0.34
24 0.37
25 0.15
26 0.15
27 0.15
28 0.4
29 0.4
3 -0.34
4 -0.57
5 -0.73
6 -0.62
7 -0.9
9 0.3

>  <PUBCHEM_EFFECTIVE_ROTOR_COUNT>
6

>  <PUBCHEM_PHARMACOPHORE_FEATURES>
6
1 4 acceptor
1 5 donor
1 6 acceptor
1 7 cation
1 7 donor
6 6 13 14 15 16 17 rings

>  <PUBCHEM_HEAVY_ATOM_COUNT>
17

>  <PUBCHEM_ATOM_DEF_STEREO_COUNT>
0

>  <PUBCHEM_ATOM_UDEF_STEREO_COUNT>
0

>  <PUBCHEM_BOND_DEF_STEREO_COUNT>
0

>  <PUBCHEM_BOND_UDEF_STEREO_COUNT>
0

>  <PUBCHEM_ISOTOPIC_ATOM_COUNT>
0

>  <PUBCHEM_COMPONENT_COUNT>
1

>  <PUBCHEM_CACTVS_TAUTO_COUNT>
9

>  <PUBCHEM_CONFORMER_ID>
06C13FBD00000001

>  <PUBCHEM_MMFF94_ENERGY>
39.8249

>  <PUBCHEM_FEATURE_SELFOVERLAP>
30.446

>  <PUBCHEM_SHAPE_FINGERPRINT>
10608611 8 18336549433641763090
10646746 165 18261394485346961530
11471102 20 18411982460079453622
116883 192 18127702526185115876
122479 349 18335704991447482779
12403259 415 18040716935807226077
12500047 106 18260831561406346546
13081056 2 18334013887182822125
13675066 3 17894356587404524011
13922767 16 18411700997913785474
14123255 352 18261390087300586909
14178342 30 17023750163928563434
14252887 29 13045933604215343976
14790565 3 17685502340192620932
15196674 1 18410294696735412201
17834072 32 18412548734021083457
18186145 218 18408889520532125651
192875 21 18060421287577534936
20281475 54 8790887376075082699
20645477 56 18260834838360742339
20645477 70 18272657822617648238
212847 35 18186524289215349156
21524375 3 18259987067878161003
231179 274 18259700090530853138
23402539 116 18272365330769683099
23402655 69 18343303695190895828
23559900 14 18413671292944971674
351380 180 18408319982373068361
3545911 37 18410296951239567946
4028521 119 18335698343275951893
4325135 7 18271525403409210791
474 4 18410856564198494643
5104073 3 18334577957732558939
548570 60 18334574667956550689

>  <PUBCHEM_SHAPE_MULTIPOLES>
307.22
9.94
2.2
0.84
6.73
0.22
0.11
4.32
0.12
-0.93
-0.03
0.41
-0.11
0.41

>  <PUBCHEM_SHAPE_SELFOVERLAP>
631.243

>  <PUBCHEM_SHAPE_VOLUME>
176.7

>  <PUBCHEM_COORDINATE_TYPE>
2
5
10

$$$$
