113328073
 OpenBabel01182520543D

 32 32  0  0  0  0  0  0  0  0999 V2000
    4.8334    1.1131    1.1401 F   0  0  0  0  0  0  0  0  0  0  0  0
    5.4882    1.4653   -0.9141 F   0  0  0  0  0  0  0  0  0  0  0  0
    3.5144    2.1298   -0.2677 F   0  0  0  0  0  0  0  0  0  0  0  0
   -1.3182   -2.4713   -0.9918 O   0  0  0  0  0  0  0  0  0  0  0  0
   -0.1865   -1.4777    0.7727 N   0  0  0  0  0  0  0  0  0  0  0  0
   -4.0237    0.7202   -1.1537 N   0  0  0  0  0  0  0  0  0  0  0  0
   -5.2661    2.3279    0.0908 N   0  0  0  0  0  0  0  0  0  0  0  0
    2.0702   -1.9378   -0.0978 C   0  0  0  0  0  0  0  0  0  0  0  0
    2.6441   -0.5800    0.3181 C   0  0  0  0  0  0  0  0  0  0  0  0
    0.9234   -2.3896    0.8005 C   0  0  0  0  0  0  0  0  0  0  0  0
    3.8289   -0.1860   -0.5643 C   0  0  0  0  0  0  0  0  0  0  0  0
    4.4266    1.1401   -0.1466 C   0  0  0  0  0  0  0  0  0  0  0  0
   -1.2328   -1.5951   -0.1354 C   0  0  0  0  0  0  0  0  0  0  0  0
   -2.2918   -0.5566   -0.0514 C   0  0  0  0  0  0  0  0  0  0  0  0
   -2.5566    0.1024    1.1440 C   0  0  0  0  0  0  0  0  0  0  0  0
   -3.0467   -0.2143   -1.1616 C   0  0  0  0  0  0  0  0  0  0  0  0
   -3.5542    1.0699    1.1920 C   0  0  0  0  0  0  0  0  0  0  0  0
   -4.2526    1.3396    0.0261 C   0  0  0  0  0  0  0  0  0  0  0  0
    1.7243   -1.8816   -1.1374 H   0  0  0  0  0  0  0  0  0  0  0  0
    2.8622   -2.6955   -0.0630 H   0  0  0  0  0  0  0  0  0  0  0  0
    2.9641   -0.6254    1.3662 H   0  0  0  0  0  0  0  0  0  0  0  0
    1.8703    0.1935    0.2489 H   0  0  0  0  0  0  0  0  0  0  0  0
    0.5815   -3.3823    0.4881 H   0  0  0  0  0  0  0  0  0  0  0  0
    1.2592   -2.4633    1.8404 H   0  0  0  0  0  0  0  0  0  0  0  0
    3.5091   -0.1239   -1.6108 H   0  0  0  0  0  0  0  0  0  0  0  0
    4.6042   -0.9588   -0.5088 H   0  0  0  0  0  0  0  0  0  0  0  0
   -0.1507   -0.6952    1.4172 H   0  0  0  0  0  0  0  0  0  0  0  0
   -2.0272   -0.1288    2.0633 H   0  0  0  0  0  0  0  0  0  0  0  0
   -2.8890   -0.6870   -2.1262 H   0  0  0  0  0  0  0  0  0  0  0  0
   -3.7703    1.5847    2.1225 H   0  0  0  0  0  0  0  0  0  0  0  0
   -5.7350    2.4800    0.9754 H   0  0  0  0  0  0  0  0  0  0  0  0
   -5.7780    2.5172   -0.7620 H   0  0  0  0  0  0  0  0  0  0  0  0
  1 12  1  0  0  0  0
  2 12  1  0  0  0  0
  3 12  1  0  0  0  0
  4 13  2  0  0  0  0
  5 10  1  0  0  0  0
  5 13  1  0  0  0  0
  5 27  1  0  0  0  0
  6 16  1  0  0  0  0
  6 18  2  0  0  0  0
  7 18  1  0  0  0  0
  7 31  1  0  0  0  0
  7 32  1  0  0  0  0
  8  9  1  0  0  0  0
  8 10  1  0  0  0  0
  8 19  1  0  0  0  0
  8 20  1  0  0  0  0
  9 11  1  0  0  0  0
  9 21  1  0  0  0  0
  9 22  1  0  0  0  0
 10 23  1  0  0  0  0
 10 24  1  0  0  0  0
 11 12  1  0  0  0  0
 11 25  1  0  0  0  0
 11 26  1  0  0  0  0
 13 14  1  0  0  0  0
 14 15  1  0  0  0  0
 14 16  2  0  0  0  0
 15 17  2  0  0  0  0
 15 28  1  0  0  0  0
 16 29  1  0  0  0  0
 17 18  1  0  0  0  0
 17 30  1  0  0  0  0
M  END
>  <PUBCHEM_COMPOUND_CID>
113328073

>  <PUBCHEM_CONFORMER_RMSD>
0.8

>  <PUBCHEM_CONFORMER_DIVERSEORDER>
2
14
30
63
22
20
61
31
15
40
60
39
62
21
13
53
48
58
9
6
32
12
33
54
52
41
3
59
29
34
43
46
42
5
11
55
45
56
16
7
17
51
47
8
4
49
10
57
44
35
1
25
36
26
50
27
28
23
37
18
38
24
19

>  <PUBCHEM_MMFF94_PARTIAL_CHARGES>
21
1 -0.34
10 0.3
12 1.02
13 0.54
14 0.09
15 -0.15
16 0.16
17 -0.15
18 0.41
2 -0.34
27 0.37
28 0.15
29 0.15
3 -0.34
30 0.15
31 0.4
32 0.4
4 -0.57
5 -0.73
6 -0.62
7 -0.9

>  <PUBCHEM_EFFECTIVE_ROTOR_COUNT>
7

>  <PUBCHEM_PHARMACOPHORE_FEATURES>
5
1 4 acceptor
1 5 donor
1 7 donor
3 6 7 18 cation
6 6 14 15 16 17 18 rings

>  <PUBCHEM_HEAVY_ATOM_COUNT>
18

>  <PUBCHEM_ATOM_DEF_STEREO_COUNT>
0

>  <PUBCHEM_ATOM_UDEF_STEREO_COUNT>
0

>  <PUBCHEM_BOND_DEF_STEREO_COUNT>
0

>  <PUBCHEM_BOND_UDEF_STEREO_COUNT>
0

>  <PUBCHEM_ISOTOPIC_ATOM_COUNT>
0

>  <PUBCHEM_COMPONENT_COUNT>
1

>  <PUBCHEM_CACTVS_TAUTO_COUNT>
9

>  <PUBCHEM_CONFORMER_ID>
06C13FC900000002

>  <PUBCHEM_MMFF94_ENERGY>
36.5037

>  <PUBCHEM_FEATURE_SELFOVERLAP>
25.372

>  <PUBCHEM_SHAPE_FINGERPRINT>
10498660 4 18273495671614733296
122479 349 18334298690590863042
12363563 72 10879995774287144018
12596602 18 13190346751220615020
13828863 39 15649333163224391502
13887833 79 16200159763656174980
14123255 352 18261110815942578044
14123255 52 18409168805086142810
14123260 362 18272091616651293730
1420 369 8790880787436845664
14251710 61 9943804486714075522
14251732 14 16773217583828271189
14251764 30 11314572175168201192
14251764 38 17983003750817649376
14251764 75 18340218405328943105
14774955 27 18337105658166944341
14848178 5 9799411088068671676
14848178 96 18411136961413084344
15342168 16 18338516340085703239
15352361 1 9943808876402760660
1741750 31 18411980290852561082
17780758 139 11603081899860238614
17834072 32 18335422413102052924
1798214 55 18408605868318017890
193927 3 9871464343952136836
19784866 34 18408602547970999994
20291156 8 9151175350475319566
20621476 66 18335425703516675468
21864079 5 18269277859216772569
22182937 141 18335990881650749274
23227448 37 18338519741351758991
23402655 69 18342178895185856846
23403322 49 10519985950426906003
235170 7 15626230134470299808
270888 7 18335422383032208484
27216 239 18186808006254932251
283562 15 18116993501700798795
2838139 119 18272082799484459064
3472631 163 18272369729201569917
351380 3 8646768915297463976
4028521 119 18343022211492251898
4259306 186 11959735966845243996
474 4 18335699420964726698
56616090 13 18335702723894661323
57724786 102 17821451274987605084
633830 44 18338233760907330303
76465 3 9439398025660927355
7970288 3 9799691489230510932

>  <PUBCHEM_SHAPE_MULTIPOLES>
327.8
11.67
2.61
1.13
5.76
0.44
-0.03
-10.65
0.97
0.72
0.03
-0.49
0.02
-0.64

>  <PUBCHEM_SHAPE_SELFOVERLAP>
668.474

>  <PUBCHEM_SHAPE_VOLUME>
189.9

>  <PUBCHEM_COORDINATE_TYPE>
2
5
10

$$$$
