113461543
 OpenBabel01182520543D

 29 29  0  0  1  0  0  0  0  0999 V2000
    5.0380    0.9347   -0.2662 F   0  0  0  0  0  0  0  0  0  0  0  0
    3.4394    0.5999   -1.7071 F   0  0  0  0  0  0  0  0  0  0  0  0
    3.0134    1.6060    0.1845 F   0  0  0  0  0  0  0  0  0  0  0  0
   -5.0511    1.0904    0.2292 O   0  0  0  0  0  0  0  0  0  0  0  0
    1.1135   -0.1948    0.7678 N   0  0  0  0  0  0  0  0  0  0  0  0
   -0.7848   -0.9446   -0.4042 N   0  0  0  0  0  0  0  0  0  0  0  0
   -4.8564   -0.6575   -1.2424 N   0  0  0  0  0  0  0  0  0  0  0  0
    1.9868   -1.1662    0.1430 C   0  0  1  0  0  0  0  0  0  0  0  0
    3.4490   -0.7211    0.2690 C   0  0  0  0  0  0  0  0  0  0  0  0
    1.7714   -2.5210    0.8114 C   0  0  0  0  0  0  0  0  0  0  0  0
    3.7295    0.6163   -0.3898 C   0  0  0  0  0  0  0  0  0  0  0  0
   -0.2388   -0.0943    0.4941 C   0  0  0  0  0  0  0  0  0  0  0  0
   -0.9513    0.8842    1.1683 C   0  0  0  0  0  0  0  0  0  0  0  0
   -2.3118    0.9975    0.9038 C   0  0  0  0  0  0  0  0  0  0  0  0
   -2.9095    0.1408   -0.0141 C   0  0  0  0  0  0  0  0  0  0  0  0
   -2.1094   -0.8044   -0.6355 C   0  0  0  0  0  0  0  0  0  0  0  0
   -4.3279    0.2341   -0.3119 C   0  0  0  0  0  0  0  0  0  0  0  0
    1.7551   -1.2531   -0.9263 H   0  0  0  0  0  0  0  0  0  0  0  0
    3.7308   -0.6533    1.3273 H   0  0  0  0  0  0  0  0  0  0  0  0
    4.1000   -1.4783   -0.1843 H   0  0  0  0  0  0  0  0  0  0  0  0
    1.4363    0.2243    1.6345 H   0  0  0  0  0  0  0  0  0  0  0  0
    1.9732   -2.4702    1.8876 H   0  0  0  0  0  0  0  0  0  0  0  0
    0.7446   -2.8796    0.6870 H   0  0  0  0  0  0  0  0  0  0  0  0
    2.4375   -3.2753    0.3791 H   0  0  0  0  0  0  0  0  0  0  0  0
   -0.4797    1.5511    1.8829 H   0  0  0  0  0  0  0  0  0  0  0  0
   -2.8861    1.7594    1.4236 H   0  0  0  0  0  0  0  0  0  0  0  0
   -2.4694   -1.5191   -1.3645 H   0  0  0  0  0  0  0  0  0  0  0  0
   -4.3370   -1.3773   -1.7287 H   0  0  0  0  0  0  0  0  0  0  0  0
   -5.8436   -0.6099   -1.4742 H   0  0  0  0  0  0  0  0  0  0  0  0
  1 11  1  0  0  0  0
  2 11  1  0  0  0  0
  3 11  1  0  0  0  0
  4 17  2  0  0  0  0
  5  8  1  0  0  0  0
  5 12  1  0  0  0  0
  5 21  1  0  0  0  0
  6 12  2  0  0  0  0
  6 16  1  0  0  0  0
  7 17  1  0  0  0  0
  7 28  1  0  0  0  0
  7 29  1  0  0  0  0
  8  9  1  0  0  0  0
  8 10  1  0  0  0  0
  8 18  1  6  0  0  0
  9 11  1  0  0  0  0
  9 19  1  0  0  0  0
  9 20  1  0  0  0  0
 10 22  1  0  0  0  0
 10 23  1  0  0  0  0
 10 24  1  0  0  0  0
 12 13  1  0  0  0  0
 13 14  2  0  0  0  0
 13 25  1  0  0  0  0
 14 15  1  0  0  0  0
 14 26  1  0  0  0  0
 15 16  2  0  0  0  0
 15 17  1  0  0  0  0
 16 27  1  0  0  0  0
M  END
>  <PUBCHEM_COMPOUND_CID>
113461543

>  <PUBCHEM_CONFORMER_RMSD>
0.6

>  <PUBCHEM_CONFORMER_DIVERSEORDER>
1
170
17
24
61
27
137
125
11
133
45
73
158
18
25
44
9
41
32
30
83
65
71
159
50
69
19
141
26
21
107
46
153
63
20
103
47
168
111
28
95
29
96
3
33
49
145
43
8
152
14
88
40
84
31
112
167
77
36
169
106
122
42
157
22
149
48
12
129
150
39
87
56
90
81
53
7
161
82
148
116
75
128
2
54
156
127
115
4
119
120
62
102
92
117
16
6
67
124
55
99
101
162
5
164
10
165
126
85
68
86
142
23
89
118
109
66
110
108
113
79
121
70
132
134
78
160
114
97
166
38
155
139
146
100
135
57
154
76
136
93
163
140
104
80
144
37
34
51
151
105
143
131
74
35
123
52
130
98
58
91
72
94
147
59
15
138
13
60
64

>  <PUBCHEM_MMFF94_PARTIAL_CHARGES>
21
1 -0.34
11 1.02
12 0.41
13 -0.15
14 -0.15
15 0.09
16 0.16
17 0.54
2 -0.34
21 0.4
25 0.15
26 0.15
27 0.15
28 0.37
29 0.37
3 -0.34
4 -0.57
5 -0.87
6 -0.62
7 -0.8
8 0.37

>  <PUBCHEM_EFFECTIVE_ROTOR_COUNT>
5

>  <PUBCHEM_PHARMACOPHORE_FEATURES>
5
1 4 acceptor
1 5 donor
1 7 donor
3 5 6 12 cation
6 6 12 13 14 15 16 rings

>  <PUBCHEM_HEAVY_ATOM_COUNT>
17

>  <PUBCHEM_ATOM_DEF_STEREO_COUNT>
0

>  <PUBCHEM_ATOM_UDEF_STEREO_COUNT>
1

>  <PUBCHEM_BOND_DEF_STEREO_COUNT>
0

>  <PUBCHEM_BOND_UDEF_STEREO_COUNT>
0

>  <PUBCHEM_ISOTOPIC_ATOM_COUNT>
0

>  <PUBCHEM_COMPONENT_COUNT>
1

>  <PUBCHEM_CACTVS_TAUTO_COUNT>
9

>  <PUBCHEM_CONFORMER_ID>
06C3492700000001

>  <PUBCHEM_MMFF94_ENERGY>
47.4366

>  <PUBCHEM_FEATURE_SELFOVERLAP>
25.372

>  <PUBCHEM_SHAPE_FINGERPRINT>
11287383 113 17603309258715842715
11471102 20 18333449829106810970
11543360 7 18114174238249130327
12119455 92 16805318907378789931
12236239 1 18343016675421955506
12616999 72 18409725157959345546
13675066 3 12251901490728153977
13760787 19 18341890784358365495
13760787 5 18339919317112701259
14573314 32 14764351501061240377
14993402 34 18202563977652524233
15342168 16 17749682899351509108
15375358 24 16515404058181133787
15501527 24 18272932764669156404
16752209 62 17274538716137335339
17834072 33 18411131459628426511
17846911 113 14129058101895372231
17959699 21 18114741521687715197
18186145 218 17603587378816972251
19026448 4 17313387773582867179
200 152 18342455937191874099
20279233 1 16298393430847754779
20281475 54 17774717572356959803
20645476 183 18341610447321265239
20645477 70 18261954037828797243
20871999 31 17988354979256847471
2255824 54 18190743033785640122
22854114 59 16298104280790710127
23402539 116 17846777403550700613
23402655 69 18341612594398542617
23532345 1 18114184098861065474
23559900 14 17060617798198474824
23598291 2 18054801589163848874
3060560 45 18409168818577582926
312423 11 18198071278436087827
351380 180 16225760830972863308
4047638 21 17531248344478414234
449060 50 17821733823305349211
474 4 18113623417035342164
4990 188 17275106132482191349
5374978 207 11819282152263113487
537710 114 18272930505542674169
57096353 35 18343295964181119919
603831 33 18271800203368238419
633830 44 17896035439208468947
8272917 22 18264490589900630003

>  <PUBCHEM_SHAPE_MULTIPOLES>
307.22
9.84
1.6
1.08
2.47
0.63
-0.14
-2.53
-2.8
-1.18
0.3
-0.01
-0.04
-1.19

>  <PUBCHEM_SHAPE_SELFOVERLAP>
636.104

>  <PUBCHEM_SHAPE_VOLUME>
175.7

>  <PUBCHEM_COORDINATE_TYPE>
2
5
10

$$$$
