114169848
 OpenBabel01182520543D

 26 26  0  0  0  0  0  0  0  0999 V2000
    2.6619   -1.4784   -0.3497 F   0  0  0  0  0  0  0  0  0  0  0  0
    2.3707    0.4764   -1.2741 F   0  0  0  0  0  0  0  0  0  0  0  0
    4.7553   -0.5163    1.1112 F   0  0  0  0  0  0  0  0  0  0  0  0
    4.9649   -0.2564   -1.0400 F   0  0  0  0  0  0  0  0  0  0  0  0
   -0.0379    1.9471   -0.2027 O   0  0  0  0  0  0  0  0  0  0  0  0
    0.5656   -0.0417    0.8271 N   0  0  0  0  0  0  0  0  0  0  0  0
   -4.0845    0.8826   -0.0512 N   0  0  0  0  0  0  0  0  0  0  0  0
   -5.6743   -0.8848   -0.2112 N   0  0  0  0  0  0  0  0  0  0  0  0
    1.9515    0.2852    1.0320 C   0  0  0  0  0  0  0  0  0  0  0  0
    2.8050   -0.1438   -0.1477 C   0  0  0  0  0  0  0  0  0  0  0  0
    4.2703    0.1668    0.0465 C   0  0  0  0  0  0  0  0  0  0  0  0
   -0.3280    0.8301    0.2172 C   0  0  0  0  0  0  0  0  0  0  0  0
   -1.7306    0.3539    0.1042 C   0  0  0  0  0  0  0  0  0  0  0  0
   -2.0244   -1.0041    0.0480 C   0  0  0  0  0  0  0  0  0  0  0  0
   -2.7871    1.2486    0.0514 C   0  0  0  0  0  0  0  0  0  0  0  0
   -3.3471   -1.4197   -0.0579 C   0  0  0  0  0  0  0  0  0  0  0  0
   -4.3314   -0.4455   -0.1033 C   0  0  0  0  0  0  0  0  0  0  0  0
    2.2659   -0.2353    1.9425 H   0  0  0  0  0  0  0  0  0  0  0  0
    2.0396    1.3646    1.1960 H   0  0  0  0  0  0  0  0  0  0  0  0
    0.2474   -0.9314    1.1961 H   0  0  0  0  0  0  0  0  0  0  0  0
    4.4617    1.2348    0.1819 H   0  0  0  0  0  0  0  0  0  0  0  0
   -1.2509   -1.7659    0.0557 H   0  0  0  0  0  0  0  0  0  0  0  0
   -2.6281    2.3218    0.0945 H   0  0  0  0  0  0  0  0  0  0  0  0
   -3.5840   -2.4776   -0.1078 H   0  0  0  0  0  0  0  0  0  0  0  0
   -5.8564   -1.7705   -0.6671 H   0  0  0  0  0  0  0  0  0  0  0  0
   -6.3897   -0.1694   -0.2504 H   0  0  0  0  0  0  0  0  0  0  0  0
  1 10  1  0  0  0  0
  2 10  1  0  0  0  0
  3 11  1  0  0  0  0
  4 11  1  0  0  0  0
  5 12  2  0  0  0  0
  6  9  1  0  0  0  0
  6 12  1  0  0  0  0
  6 20  1  0  0  0  0
  7 15  1  0  0  0  0
  7 17  2  0  0  0  0
  8 17  1  0  0  0  0
  8 25  1  0  0  0  0
  8 26  1  0  0  0  0
  9 10  1  0  0  0  0
  9 18  1  0  0  0  0
  9 19  1  0  0  0  0
 10 11  1  0  0  0  0
 11 21  1  0  0  0  0
 12 13  1  0  0  0  0
 13 14  1  0  0  0  0
 13 15  2  0  0  0  0
 14 16  2  0  0  0  0
 14 22  1  0  0  0  0
 15 23  1  0  0  0  0
 16 17  1  0  0  0  0
 16 24  1  0  0  0  0
M  END
>  <PUBCHEM_COMPOUND_CID>
114169848

>  <PUBCHEM_CONFORMER_RMSD>
0.6

>  <PUBCHEM_CONFORMER_DIVERSEORDER>
2
78
10
94
57
82
98
93
53
77
61
86
101
84
66
21
70
55
47
56
40
52
3
63
97
58
73
74
35
87
68
14
60
59
13
54
83
75
26
49
36
33
95
88
25
46
48
51
7
71
92
8
19
81
90
69
85
41
43
12
39
79
31
17
72
1
37
27
67
18
76
15
96
24
9
32
16
50
30
22
38
91
6
100
28
64
29
4
89
20
44
5
45
23
65
34
62
99
11
80
42
102

>  <PUBCHEM_MMFF94_PARTIAL_CHARGES>
23
1 -0.34
10 0.68
11 0.68
12 0.54
13 0.09
14 -0.15
15 0.16
16 -0.15
17 0.41
2 -0.34
20 0.37
22 0.15
23 0.15
24 0.15
25 0.4
26 0.4
3 -0.34
4 -0.34
5 -0.57
6 -0.73
7 -0.62
8 -0.9
9 0.3

>  <PUBCHEM_EFFECTIVE_ROTOR_COUNT>
5

>  <PUBCHEM_PHARMACOPHORE_FEATURES>
5
1 5 acceptor
1 6 donor
1 8 donor
3 7 8 17 cation
6 7 13 14 15 16 17 rings

>  <PUBCHEM_HEAVY_ATOM_COUNT>
17

>  <PUBCHEM_ATOM_DEF_STEREO_COUNT>
0

>  <PUBCHEM_ATOM_UDEF_STEREO_COUNT>
0

>  <PUBCHEM_BOND_DEF_STEREO_COUNT>
0

>  <PUBCHEM_BOND_UDEF_STEREO_COUNT>
0

>  <PUBCHEM_ISOTOPIC_ATOM_COUNT>
0

>  <PUBCHEM_COMPONENT_COUNT>
1

>  <PUBCHEM_CACTVS_TAUTO_COUNT>
9

>  <PUBCHEM_CONFORMER_ID>
06CE17F800000002

>  <PUBCHEM_MMFF94_ENERGY>
34.7362

>  <PUBCHEM_FEATURE_SELFOVERLAP>
25.372

>  <PUBCHEM_SHAPE_FINGERPRINT>
10968037 39 18410294739368275309
12236239 1 17676485038366567017
12251169 10 12823296810121073217
12815109 37 18413669127563594210
14123238 8 18186803577774137750
14252887 29 16630533925173357500
14386348 63 17775288265645766559
15196674 1 18340769234762926231
15375358 24 17989203737471110742
15536298 74 18339921640036322569
17804303 29 18272087223490639217
17834072 33 18410012182112787477
17834072 8 18409438194979457061
18186145 218 16226046716680598169
19141452 34 17846497084521618415
200 152 17531243954647284696
20279233 1 17989489627621493095
20281475 54 18270402685455585744
20374829 77 18411414029600199555
20645477 70 17275109384157764630
20871999 31 18260825978038344053
21119208 17 17240199941103838543
21267235 1 18410300233058903107
212847 35 9871750200212435178
22485316 2 18272086089044214458
2297311 6 18202010918771603645
23175994 123 17203611501646759369
23402539 116 18114175316185538956
23402655 69 17458340806050169636
23557571 272 18272660000065743004
23559900 14 18270674376333805105
26918003 58 15554449617562817199
2871803 45 18411420592226052702
4214541 1 18413107230178113729
573450 72 18261382304693116408
7364860 26 18197495345044859609

>  <PUBCHEM_SHAPE_MULTIPOLES>
299.94
10.88
1.35
0.86
1.4
0.14
0.01
-2.94
-0.91
-0.84
-0.08
0.84
0
-0.03

>  <PUBCHEM_SHAPE_SELFOVERLAP>
626.185

>  <PUBCHEM_SHAPE_VOLUME>
169.3

>  <PUBCHEM_COORDINATE_TYPE>
2
5
10

$$$$
