114159203
 OpenBabel01182520543D

 27 28  0  0  0  0  0  0  0  0999 V2000
    3.8015   -0.3383   -0.5389 F   0  0  0  0  0  0  0  0  0  0  0  0
    2.0290   -0.9095   -1.6856 F   0  0  0  0  0  0  0  0  0  0  0  0
    2.3578    1.1857   -1.1521 F   0  0  0  0  0  0  0  0  0  0  0  0
   -2.6603   -2.1458    1.0163 O   0  0  0  0  0  0  0  0  0  0  0  0
    0.3231   -0.6315    0.3494 N   0  0  0  0  0  0  0  0  0  0  0  0
   -0.3456    1.6254    0.1934 N   0  0  0  0  0  0  0  0  0  0  0  0
   -2.3107   -2.2073   -1.2492 N   0  0  0  0  0  0  0  0  0  0  0  0
    1.7361   -0.2900    0.5441 C   0  0  0  0  0  0  0  0  0  0  0  0
    2.1269    0.5587    1.7339 C   0  0  0  0  0  0  0  0  0  0  0  0
    2.4822   -0.8974    1.7115 C   0  0  0  0  0  0  0  0  0  0  0  0
    2.4979   -0.0835   -0.7361 C   0  0  0  0  0  0  0  0  0  0  0  0
   -0.6946    0.3194    0.1725 C   0  0  0  0  0  0  0  0  0  0  0  0
   -1.9911   -0.1342   -0.0098 C   0  0  0  0  0  0  0  0  0  0  0  0
   -2.9941    0.8135   -0.1817 C   0  0  0  0  0  0  0  0  0  0  0  0
   -2.3367   -1.5489   -0.0243 C   0  0  0  0  0  0  0  0  0  0  0  0
   -1.3472    2.5173    0.0230 C   0  0  0  0  0  0  0  0  0  0  0  0
   -2.6742    2.1666   -0.1663 C   0  0  0  0  0  0  0  0  0  0  0  0
    1.3614    0.8695    2.4350 H   0  0  0  0  0  0  0  0  0  0  0  0
    2.9313    1.2751    1.6153 H   0  0  0  0  0  0  0  0  0  0  0  0
    3.5284   -1.1568    1.6095 H   0  0  0  0  0  0  0  0  0  0  0  0
    1.9375   -1.5562    2.3788 H   0  0  0  0  0  0  0  0  0  0  0  0
    0.1007   -1.5838    0.0785 H   0  0  0  0  0  0  0  0  0  0  0  0
   -4.0276    0.5104   -0.3276 H   0  0  0  0  0  0  0  0  0  0  0  0
   -1.0454    3.5593    0.0432 H   0  0  0  0  0  0  0  0  0  0  0  0
   -3.4395    2.9229   -0.2981 H   0  0  0  0  0  0  0  0  0  0  0  0
   -2.0554   -1.7342   -2.1103 H   0  0  0  0  0  0  0  0  0  0  0  0
   -2.5483   -3.1912   -1.3180 H   0  0  0  0  0  0  0  0  0  0  0  0
  1 11  1  0  0  0  0
  2 11  1  0  0  0  0
  3 11  1  0  0  0  0
  4 15  2  0  0  0  0
  5  8  1  0  0  0  0
  5 12  1  0  0  0  0
  5 22  1  0  0  0  0
  6 12  1  0  0  0  0
  6 16  2  0  0  0  0
  7 15  1  0  0  0  0
  7 26  1  0  0  0  0
  7 27  1  0  0  0  0
  8  9  1  0  0  0  0
  8 10  1  0  0  0  0
  8 11  1  0  0  0  0
  9 10  1  0  0  0  0
  9 18  1  0  0  0  0
  9 19  1  0  0  0  0
 10 20  1  0  0  0  0
 10 21  1  0  0  0  0
 12 13  2  0  0  0  0
 13 14  1  0  0  0  0
 13 15  1  0  0  0  0
 14 17  2  0  0  0  0
 14 23  1  0  0  0  0
 16 17  1  0  0  0  0
 16 24  1  0  0  0  0
 17 25  1  0  0  0  0
M  END
>  <PUBCHEM_COMPOUND_CID>
114159203

>  <PUBCHEM_CONFORMER_RMSD>
0.6

>  <PUBCHEM_CONFORMER_DIVERSEORDER>
1
32
37
33
51
5
50
42
38
8
34
41
36
31
45
40
48
49
17
9
25
18
6
16
44
47
2
20
26
13
23
14
46
19
15
43
39
35
4
27
22
24
12
3
28
21
29
7
11
10
30

>  <PUBCHEM_MMFF94_PARTIAL_CHARGES>
27
1 -0.34
10 -0.2
11 1.12
12 0.41
13 0.09
14 -0.15
15 0.54
16 0.16
17 -0.15
18 0.1
19 0.1
2 -0.34
20 0.1
21 0.1
22 0.4
23 0.15
24 0.15
25 0.15
26 0.37
27 0.37
3 -0.34
4 -0.57
5 -0.67
6 -0.62
7 -0.8
8 0.07
9 -0.2

>  <PUBCHEM_EFFECTIVE_ROTOR_COUNT>
4.6

>  <PUBCHEM_PHARMACOPHORE_FEATURES>
6
1 4 acceptor
1 5 cation
1 5 donor
1 6 acceptor
1 7 donor
6 6 12 13 14 16 17 rings

>  <PUBCHEM_HEAVY_ATOM_COUNT>
17

>  <PUBCHEM_ATOM_DEF_STEREO_COUNT>
0

>  <PUBCHEM_ATOM_UDEF_STEREO_COUNT>
0

>  <PUBCHEM_BOND_DEF_STEREO_COUNT>
0

>  <PUBCHEM_BOND_UDEF_STEREO_COUNT>
0

>  <PUBCHEM_ISOTOPIC_ATOM_COUNT>
0

>  <PUBCHEM_COMPONENT_COUNT>
1

>  <PUBCHEM_CACTVS_TAUTO_COUNT>
9

>  <PUBCHEM_CONFORMER_ID>
06CDEE6300000001

>  <PUBCHEM_MMFF94_ENERGY>
51.9421

>  <PUBCHEM_FEATURE_SELFOVERLAP>
30.446

>  <PUBCHEM_SHAPE_FINGERPRINT>
12202030 40 17418374713763689766
12500047 106 18269827614946296796
12553582 1 18192428795617087675
13083527 12 17334454656588446163
13380536 127 18261111884935838594
13538477 17 18113335280326907273
14787075 74 16959022068945897934
15279307 12 17968097456419354651
15669948 3 18408317765958843163
15775835 57 17604156917366296228
15852999 172 17914598467596234135
16752209 62 18335972070305727361
16945 1 18338229371687773249
19049666 15 17630608912108946640
19868273 293 18262230019895341741
19868273 325 18410013277487579909
20279233 1 17632286874253618794
20645476 183 17895198740671307641
20645477 70 17259613176846597751
21524375 3 17978217263232065697
22112679 90 17968086474573009328
22802520 49 18202008685377813314
232386 152 18262221253729752538
23402539 116 18261114097592932948
23419403 2 13174785543393718855
23526113 38 17559401245239463350
23557571 272 18271234019156789504
23559900 14 18129660769770041378
23598291 2 17604989208839477258
2748010 2 18196357329161459681
576247 118 18048622570186901827
5845 1 17845087557706046713
6049 1 17917992806072872880
6992083 37 17462827805813421210
74978 22 18260546684482980948
7615 1 17749095695427648928
77492 1 17676202438245555504
8030462 33 18113891684602632394
81228 2 18411975867346982457
88987 49 18338787927657425224

>  <PUBCHEM_SHAPE_MULTIPOLES>
307.22
5.45
2.32
1.35
1.68
0.06
0.05
-0.42
-0.31
-2.61
-0.08
1.23
-0.35
-0.11

>  <PUBCHEM_SHAPE_SELFOVERLAP>
654.704

>  <PUBCHEM_SHAPE_VOLUME>
172

>  <PUBCHEM_COORDINATE_TYPE>
2
5
10

$$$$
