114169636
 OpenBabel01182520543D

 26 26  0  0  0  0  0  0  0  0999 V2000
   -3.3248    1.2262    1.0475 F   0  0  0  0  0  0  0  0  0  0  0  0
   -3.3546    0.8665   -1.1045 F   0  0  0  0  0  0  0  0  0  0  0  0
   -4.2474   -1.6797   -0.7023 F   0  0  0  0  0  0  0  0  0  0  0  0
   -5.4974   -0.1363    0.1890 F   0  0  0  0  0  0  0  0  0  0  0  0
    5.1324   -1.4852    0.1522 O   0  0  0  0  0  0  0  0  0  0  0  0
   -0.8063    0.6778   -0.0021 N   0  0  0  0  0  0  0  0  0  0  0  0
    1.4043    1.4700   -0.1832 N   0  0  0  0  0  0  0  0  0  0  0  0
    5.5089    0.7517   -0.1843 N   0  0  0  0  0  0  0  0  0  0  0  0
   -1.8054   -0.3489    0.1821 C   0  0  0  0  0  0  0  0  0  0  0  0
   -3.1935    0.2629    0.1006 C   0  0  0  0  0  0  0  0  0  0  0  0
   -4.2937   -0.7554    0.2870 C   0  0  0  0  0  0  0  0  0  0  0  0
    0.5572    0.4322   -0.0014 C   0  0  0  0  0  0  0  0  0  0  0  0
    0.9655   -0.8782    0.1884 C   0  0  0  0  0  0  0  0  0  0  0  0
    3.2338   -0.0989    0.0076 C   0  0  0  0  0  0  0  0  0  0  0  0
    2.3311   -1.1405    0.1916 C   0  0  0  0  0  0  0  0  0  0  0  0
    2.7240    1.1766   -0.1741 C   0  0  0  0  0  0  0  0  0  0  0  0
    4.6659   -0.3406    0.0059 C   0  0  0  0  0  0  0  0  0  0  0  0
   -1.6822   -0.8187    1.1650 H   0  0  0  0  0  0  0  0  0  0  0  0
   -1.7096   -1.1090   -0.6021 H   0  0  0  0  0  0  0  0  0  0  0  0
   -1.0983    1.6386   -0.1402 H   0  0  0  0  0  0  0  0  0  0  0  0
   -4.2445   -1.2583    1.2567 H   0  0  0  0  0  0  0  0  0  0  0  0
    0.2906   -1.7131    0.3358 H   0  0  0  0  0  0  0  0  0  0  0  0
    2.6699   -2.1623    0.3395 H   0  0  0  0  0  0  0  0  0  0  0  0
    3.3344    2.0577   -0.3260 H   0  0  0  0  0  0  0  0  0  0  0  0
    5.2104    1.7099   -0.3148 H   0  0  0  0  0  0  0  0  0  0  0  0
    6.5141    0.6100   -0.1966 H   0  0  0  0  0  0  0  0  0  0  0  0
  1 10  1  0  0  0  0
  2 10  1  0  0  0  0
  3 11  1  0  0  0  0
  4 11  1  0  0  0  0
  5 17  2  0  0  0  0
  6  9  1  0  0  0  0
  6 12  1  0  0  0  0
  6 20  1  0  0  0  0
  7 12  2  0  0  0  0
  7 16  1  0  0  0  0
  8 17  1  0  0  0  0
  8 25  1  0  0  0  0
  8 26  1  0  0  0  0
  9 10  1  0  0  0  0
  9 18  1  0  0  0  0
  9 19  1  0  0  0  0
 10 11  1  0  0  0  0
 11 21  1  0  0  0  0
 12 13  1  0  0  0  0
 13 15  2  0  0  0  0
 13 22  1  0  0  0  0
 14 15  1  0  0  0  0
 14 16  2  0  0  0  0
 14 17  1  0  0  0  0
 15 23  1  0  0  0  0
 16 24  1  0  0  0  0
M  END
>  <PUBCHEM_COMPOUND_CID>
114169636

>  <PUBCHEM_CONFORMER_RMSD>
0.6

>  <PUBCHEM_CONFORMER_DIVERSEORDER>
1
138
114
46
118
74
65
37
101
128
18
45
115
2
8
69
119
103
71
95
10
121
76
3
47
9
106
40
7
112
127
26
113
104
123
12
135
6
133
139
34
11
93
98
53
58
124
137
16
102
90
73
51
94
91
126
80
131
132
55
68
27
50
129
21
36
75
64
105
23
117
136
25
17
110
89
125
111
92
44
5
13
70
57
62
130
56
99
134
77
82
19
122
86
24
38
49
140
4
43
20
15
41
29
78
81
33
100
83
72
54
79
42
30
60
67
116
39
120
84
66
109
14
88
31
96
107
61
22
87
63
52
32
48
108
28
85
35
59
97

>  <PUBCHEM_MMFF94_PARTIAL_CHARGES>
23
1 -0.34
10 0.68
11 0.68
12 0.41
13 -0.15
14 0.09
15 -0.15
16 0.16
17 0.54
2 -0.34
20 0.4
22 0.15
23 0.15
24 0.15
25 0.37
26 0.37
3 -0.34
4 -0.34
5 -0.57
6 -0.87
7 -0.62
8 -0.8
9 0.37

>  <PUBCHEM_EFFECTIVE_ROTOR_COUNT>
5

>  <PUBCHEM_PHARMACOPHORE_FEATURES>
5
1 5 acceptor
1 6 donor
1 8 donor
3 6 7 12 cation
6 7 12 13 14 15 16 rings

>  <PUBCHEM_HEAVY_ATOM_COUNT>
17

>  <PUBCHEM_ATOM_DEF_STEREO_COUNT>
0

>  <PUBCHEM_ATOM_UDEF_STEREO_COUNT>
0

>  <PUBCHEM_BOND_DEF_STEREO_COUNT>
0

>  <PUBCHEM_BOND_UDEF_STEREO_COUNT>
0

>  <PUBCHEM_ISOTOPIC_ATOM_COUNT>
0

>  <PUBCHEM_COMPONENT_COUNT>
1

>  <PUBCHEM_CACTVS_TAUTO_COUNT>
9

>  <PUBCHEM_CONFORMER_ID>
06CE172400000001

>  <PUBCHEM_MMFF94_ENERGY>
40.9955

>  <PUBCHEM_FEATURE_SELFOVERLAP>
25.372

>  <PUBCHEM_SHAPE_FINGERPRINT>
10680689 15 17676491622746727461
10912923 1 18413393124807716256
11471102 20 18334013895962706252
11806522 49 18409730660165554576
12107183 9 17621607111607121763
12236239 1 18273216391477067465
12916754 54 18335140942562682333
13167823 11 18412824702649539887
13675066 3 17275102808430737748
13690532 89 18409449176588385858
13862211 1 18334010558863223554
14123238 8 18411420622274583662
1420 363 17822298989324777963
14251718 22 18259986006720012650
14252887 29 17988933240953080726
15196674 1 18408886209381255272
17834072 33 18412826914884491652
17834076 25 9151175346032379885
17862501 102 18343019990930875898
19433438 38 17894907404254480703
200 152 18341893008982321051
20279233 1 17095529486960899891
20645477 70 18409450242094131870
21267235 1 18410865364454855579
221490 88 18118128197425421338
22646028 1 18412543236600133599
23402539 116 18408881828351148181
23402655 69 18335415738596196517
23557571 272 17603865564149233109
23559900 14 18339354283836585993
26918003 58 18131914862515689339
29717793 49 18201720639275291485
42 15 18273497874869652297
4214541 1 18411138009221522193
42788 4 18408323280623004690
4990 188 18201727232408767342
5104073 3 18412263930281227992
542803 24 16917353636048174472
57483677 66 18411135840036268818
602551 16 15984811701004431110
7495541 125 16988558065103426994

>  <PUBCHEM_SHAPE_MULTIPOLES>
299.94
12.03
1.38
0.71
1.69
0.09
-0.01
2.06
-0.23
-0.3
-0.05
0.44
-0.05
-0.38

>  <PUBCHEM_SHAPE_SELFOVERLAP>
627.61

>  <PUBCHEM_SHAPE_VOLUME>
169.6

>  <PUBCHEM_COORDINATE_TYPE>
2
5
10

$$$$
