114272094
 OpenBabel01182520543D

 30 31  0  0  1  0  0  0  0  0999 V2000
    4.6669   -0.9913   -0.4524 F   0  0  0  0  0  0  0  0  0  0  0  0
    3.3088   -1.4008    1.2071 F   0  0  0  0  0  0  0  0  0  0  0  0
    2.9356   -2.2866   -0.7530 F   0  0  0  0  0  0  0  0  0  0  0  0
   -1.0303    2.9049    0.1687 O   0  0  0  0  0  0  0  0  0  0  0  0
    0.6169    1.2723    0.0465 N   0  0  0  0  0  0  0  0  0  0  0  0
   -3.7254   -0.1875   -1.0025 N   0  0  0  0  0  0  0  0  0  0  0  0
   -4.8115   -2.0901   -0.0657 N   0  0  0  0  0  0  0  0  0  0  0  0
    2.5429    0.0201   -0.5050 C   0  0  2  0  0  0  0  0  0  0  0  0
    2.9660    1.3045    0.2113 C   0  0  0  0  0  0  0  0  0  0  0  0
    1.0719   -0.1091   -0.1093 C   0  0  0  0  0  0  0  0  0  0  0  0
    1.7431    2.1944    0.0514 C   0  0  0  0  0  0  0  0  0  0  0  0
    3.3788   -1.1864   -0.1188 C   0  0  0  0  0  0  0  0  0  0  0  0
   -0.6922    1.7245    0.1069 C   0  0  0  0  0  0  0  0  0  0  0  0
   -1.7624    0.7149    0.0824 C   0  0  0  0  0  0  0  0  0  0  0  0
   -1.8468   -0.2643    1.0660 C   0  0  0  0  0  0  0  0  0  0  0  0
   -2.7176    0.7100   -0.9212 C   0  0  0  0  0  0  0  0  0  0  0  0
   -2.8695   -1.2053    1.0164 C   0  0  0  0  0  0  0  0  0  0  0  0
   -3.7752   -1.1243   -0.0290 C   0  0  0  0  0  0  0  0  0  0  0  0
    2.6126    0.1787   -1.5891 H   0  0  0  0  0  0  0  0  0  0  0  0
    3.8669    1.7542   -0.2159 H   0  0  0  0  0  0  0  0  0  0  0  0
    3.1508    1.1134    1.2756 H   0  0  0  0  0  0  0  0  0  0  0  0
    0.4809   -0.6341   -0.8656 H   0  0  0  0  0  0  0  0  0  0  0  0
    0.9580   -0.6137    0.8555 H   0  0  0  0  0  0  0  0  0  0  0  0
    1.6377    2.9304    0.8540 H   0  0  0  0  0  0  0  0  0  0  0  0
    1.7498    2.7195   -0.9102 H   0  0  0  0  0  0  0  0  0  0  0  0
   -1.1389   -0.2958    1.8895 H   0  0  0  0  0  0  0  0  0  0  0  0
   -2.7036    1.4475   -1.7180 H   0  0  0  0  0  0  0  0  0  0  0  0
   -2.9448   -1.9691    1.7836 H   0  0  0  0  0  0  0  0  0  0  0  0
   -4.6390   -2.9978    0.3485 H   0  0  0  0  0  0  0  0  0  0  0  0
   -5.4674   -2.0308   -0.8348 H   0  0  0  0  0  0  0  0  0  0  0  0
  1 12  1  0  0  0  0
  2 12  1  0  0  0  0
  3 12  1  0  0  0  0
  4 13  2  0  0  0  0
  5 10  1  0  0  0  0
  5 11  1  0  0  0  0
  5 13  1  0  0  0  0
  6 16  1  0  0  0  0
  6 18  2  0  0  0  0
  7 18  1  0  0  0  0
  7 29  1  0  0  0  0
  7 30  1  0  0  0  0
  8  9  1  0  0  0  0
  8 10  1  0  0  0  0
  8 12  1  0  0  0  0
  8 19  1  6  0  0  0
  9 11  1  0  0  0  0
  9 20  1  0  0  0  0
  9 21  1  0  0  0  0
 10 22  1  0  0  0  0
 10 23  1  0  0  0  0
 11 24  1  0  0  0  0
 11 25  1  0  0  0  0
 13 14  1  0  0  0  0
 14 15  1  0  0  0  0
 14 16  2  0  0  0  0
 15 17  2  0  0  0  0
 15 26  1  0  0  0  0
 16 27  1  0  0  0  0
 17 18  1  0  0  0  0
 17 28  1  0  0  0  0
M  END
>  <PUBCHEM_COMPOUND_CID>
114272094

>  <PUBCHEM_CONFORMER_RMSD>
0.6

>  <PUBCHEM_CONFORMER_DIVERSEORDER>
1
29
6
19
10
17
4
18
12
20
22
27
15
2
13
26
21
16
28
31
9
30
3
14
11
25
8
23
24
7
5

>  <PUBCHEM_MMFF94_PARTIAL_CHARGES>
21
1 -0.34
10 0.3
11 0.3
12 1.02
13 0.54
14 0.09
15 -0.15
16 0.16
17 -0.15
18 0.41
2 -0.34
26 0.15
27 0.15
28 0.15
29 0.4
3 -0.34
30 0.4
4 -0.57
5 -0.66
6 -0.62
7 -0.9

>  <PUBCHEM_EFFECTIVE_ROTOR_COUNT>
4

>  <PUBCHEM_PHARMACOPHORE_FEATURES>
5
1 4 acceptor
1 7 donor
3 6 7 18 cation
5 5 8 9 10 11 rings
6 6 14 15 16 17 18 rings

>  <PUBCHEM_HEAVY_ATOM_COUNT>
18

>  <PUBCHEM_ATOM_DEF_STEREO_COUNT>
0

>  <PUBCHEM_ATOM_UDEF_STEREO_COUNT>
1

>  <PUBCHEM_BOND_DEF_STEREO_COUNT>
0

>  <PUBCHEM_BOND_UDEF_STEREO_COUNT>
0

>  <PUBCHEM_ISOTOPIC_ATOM_COUNT>
0

>  <PUBCHEM_COMPONENT_COUNT>
1

>  <PUBCHEM_CACTVS_TAUTO_COUNT>
5

>  <PUBCHEM_CONFORMER_ID>
06CFA75E00000001

>  <PUBCHEM_MMFF94_ENERGY>
54.4855

>  <PUBCHEM_FEATURE_SELFOVERLAP>
25.372

>  <PUBCHEM_SHAPE_FINGERPRINT>
10618630 7 18411140242293214829
10968037 57 18129954381475173639
11137873 295 18408045108898118395
11543360 7 16443074923272824798
11806522 49 18408605860002539324
12363563 72 18411143527895632575
12553582 1 18339095816714576834
13296908 3 18409447011766749485
13533116 47 18127978722963797459
13583140 156 14692292772671911115
15352361 1 18411138026069205462
15375462 189 17702664513561844773
15635459 17 18336833081819502818
17834072 14 18410564080983435328
17834072 32 9151169852875132127
18186145 218 17822281388707132293
200 152 18201999945404176589
20281475 54 18411426137007726265
20374829 77 18334289860090265755
20645477 70 18337388352334092231
20671657 53 18334575724397030336
21452121 199 18408599284070408464
21501502 16 18339370681789944600
21501925 9 18411974759171605976
221490 88 18409452500798224868
22646028 28 18413671305159583543
231179 274 8430316853024655470
23403322 49 18408322164032033319
23526113 38 18115023146919547489
23559900 14 18336537274748077736
27216 239 10447633704594982887
2871803 45 18260547848461270810
31174 14 17988636458380981840
33824 294 18195527214851238048
4921388 177 15936704726047053347
5104073 3 18342736308188280832
76465 3 18408598150098575146
81228 2 18333449816117317153
8809292 202 18334578997162161841
90316 7 14979966869503065011
9709674 26 18188490306168535915

>  <PUBCHEM_SHAPE_MULTIPOLES>
327.8
8.34
2.48
0.93
0.94
0.62
-0.07
-5.82
0.86
-0.66
-0.06
0.29
-0.19
0.42

>  <PUBCHEM_SHAPE_SELFOVERLAP>
698.981

>  <PUBCHEM_SHAPE_VOLUME>
184.3

>  <PUBCHEM_COORDINATE_TYPE>
2
5
10

$$$$
