114384383
 OpenBabel01182520543D

 28 28  0  0  0  0  0  0  0  0999 V2000
    2.7145    0.7216   -1.0950 F   0  0  0  0  0  0  0  0  0  0  0  0
    2.6997    0.7249    1.0895 F   0  0  0  0  0  0  0  0  0  0  0  0
   -1.7454    2.4258   -1.1186 O   0  0  0  0  0  0  0  0  0  0  0  0
    0.2825   -0.0801   -0.0198 N   0  0  0  0  0  0  0  0  0  0  0  0
    5.1600   -0.0819    0.0081 N   0  0  0  0  0  0  0  0  0  0  0  0
   -1.1981   -1.8956    0.0136 N   0  0  0  0  0  0  0  0  0  0  0  0
   -1.7274    2.4638    1.1742 N   0  0  0  0  0  0  0  0  0  0  0  0
    2.7094   -0.0840   -0.0015 C   0  0  0  0  0  0  0  0  0  0  0  0
    1.4478   -0.9335   -0.0088 C   0  0  0  0  0  0  0  0  0  0  0  0
    3.9741   -0.9333    0.0084 C   0  0  0  0  0  0  0  0  0  0  0  0
   -1.0186   -0.5559   -0.0075 C   0  0  0  0  0  0  0  0  0  0  0  0
   -2.0536    0.3653   -0.0201 C   0  0  0  0  0  0  0  0  0  0  0  0
   -3.3566   -0.1197   -0.0103 C   0  0  0  0  0  0  0  0  0  0  0  0
   -3.5817   -1.4916    0.0115 C   0  0  0  0  0  0  0  0  0  0  0  0
   -1.8283    1.8040   -0.0461 C   0  0  0  0  0  0  0  0  0  0  0  0
   -2.4784   -2.3297    0.0225 C   0  0  0  0  0  0  0  0  0  0  0  0
    1.4395   -1.5747   -0.8978 H   0  0  0  0  0  0  0  0  0  0  0  0
    1.4282   -1.5679    0.8848 H   0  0  0  0  0  0  0  0  0  0  0  0
    3.9965   -1.5699    0.8992 H   0  0  0  0  0  0  0  0  0  0  0  0
    4.0063   -1.5737   -0.8789 H   0  0  0  0  0  0  0  0  0  0  0  0
    0.4238    0.8745   -0.3332 H   0  0  0  0  0  0  0  0  0  0  0  0
   -4.2042    0.5606   -0.0202 H   0  0  0  0  0  0  0  0  0  0  0  0
    5.9937   -0.6639    0.0783 H   0  0  0  0  0  0  0  0  0  0  0  0
    5.1545    0.5120    0.8365 H   0  0  0  0  0  0  0  0  0  0  0  0
   -4.5889   -1.8923    0.0192 H   0  0  0  0  0  0  0  0  0  0  0  0
   -2.6000   -3.4078    0.0395 H   0  0  0  0  0  0  0  0  0  0  0  0
   -1.7997    1.9733    2.0599 H   0  0  0  0  0  0  0  0  0  0  0  0
   -1.5767    3.4663    1.2144 H   0  0  0  0  0  0  0  0  0  0  0  0
  1  8  1  0  0  0  0
  2  8  1  0  0  0  0
  3 15  2  0  0  0  0
  4  9  1  0  0  0  0
  4 11  1  0  0  0  0
  4 21  1  0  0  0  0
  5 10  1  0  0  0  0
  5 23  1  0  0  0  0
  5 24  1  0  0  0  0
  6 11  1  0  0  0  0
  6 16  2  0  0  0  0
  7 15  1  0  0  0  0
  7 27  1  0  0  0  0
  7 28  1  0  0  0  0
  8  9  1  0  0  0  0
  8 10  1  0  0  0  0
  9 17  1  0  0  0  0
  9 18  1  0  0  0  0
 10 19  1  0  0  0  0
 10 20  1  0  0  0  0
 11 12  2  0  0  0  0
 12 13  1  0  0  0  0
 12 15  1  0  0  0  0
 13 14  2  0  0  0  0
 13 22  1  0  0  0  0
 14 16  1  0  0  0  0
 14 25  1  0  0  0  0
 16 26  1  0  0  0  0
M  END
>  <PUBCHEM_COMPOUND_CID>
114384383

>  <PUBCHEM_CONFORMER_RMSD>
0.6

>  <PUBCHEM_CONFORMER_DIVERSEORDER>
1
83
99
65
64
55
90
57
61
96
105
15
100
79
41
62
101
70
85
46
89
73
95
22
36
13
92
78
94
9
88
5
69
23
102
71
104
3
68
28
98
45
63
56
32
11
91
81
35
103
87
39
97
82
42
58
7
93
52
8
40
86
21
74
38
84
27
4
50
33
30
20
54
77
19
14
76
6
66
72
2
49
59
75
29
16
18
31
48
67
12
43
24
51
37
26
53
44
25
17
34
10
60
80
47

>  <PUBCHEM_MMFF94_PARTIAL_CHARGES>
24
1 -0.34
10 0.27
11 0.41
12 0.09
13 -0.15
14 -0.15
15 0.54
16 0.16
2 -0.34
21 0.4
22 0.15
23 0.36
24 0.36
25 0.15
26 0.15
27 0.37
28 0.37
3 -0.57
4 -0.87
5 -0.99
6 -0.62
7 -0.8
8 0.68
9 0.37

>  <PUBCHEM_EFFECTIVE_ROTOR_COUNT>
5

>  <PUBCHEM_PHARMACOPHORE_FEATURES>
8
1 3 acceptor
1 4 cation
1 4 donor
1 5 cation
1 5 donor
1 6 acceptor
1 7 donor
6 6 11 12 13 14 16 rings

>  <PUBCHEM_HEAVY_ATOM_COUNT>
16

>  <PUBCHEM_ATOM_DEF_STEREO_COUNT>
0

>  <PUBCHEM_ATOM_UDEF_STEREO_COUNT>
0

>  <PUBCHEM_BOND_DEF_STEREO_COUNT>
0

>  <PUBCHEM_BOND_UDEF_STEREO_COUNT>
0

>  <PUBCHEM_ISOTOPIC_ATOM_COUNT>
0

>  <PUBCHEM_COMPONENT_COUNT>
1

>  <PUBCHEM_CACTVS_TAUTO_COUNT>
9

>  <PUBCHEM_CONFORMER_ID>
06D15DFF00000001

>  <PUBCHEM_MMFF94_ENERGY>
47.67

>  <PUBCHEM_FEATURE_SELFOVERLAP>
40.596

>  <PUBCHEM_SHAPE_FINGERPRINT>
10608611 8 18342452634530834952
11132069 177 18413387657208918107
11680986 33 17834389404352881499
14614273 12 18263362491307739389
15442244 35 18191584147416994106
17802600 8 18411976975189971304
19049666 15 17987524701827558454
1986462 14 18340491075817193534
200 152 18261385685043692975
20510252 161 18413388717912866099
20645477 56 18339646633285264008
20645477 70 16988288560902437534
21029758 11 18270954774043487103
21029758 27 18188780582013504663
21339142 51 18334851758172455551
21524375 3 18122343472025022609
2297311 6 18342471360593760774
2306618 200 18202007603214938363
23402539 116 18341324557139214879
23557571 272 18343868822312759238
23559900 14 18340761624423483336
2748010 2 18048888385907744231
4214541 1 18410573942866565830
573450 72 18188759566553929018
7364860 26 17621602048420791379
81228 2 18337686264556878667
9709674 26 18341619196106713846

>  <PUBCHEM_SHAPE_MULTIPOLES>
288.93
7.63
2.37
0.82
9.42
0.79
0.01
-1.63
0.02
-2.62
0.05
0.05
0.41
0.01

>  <PUBCHEM_SHAPE_SELFOVERLAP>
597.515

>  <PUBCHEM_SHAPE_VOLUME>
164.8

>  <PUBCHEM_COORDINATE_TYPE>
2
5
10

$$$$
