115408583
 OpenBabel01182520543D

 23 23  0  0  0  0  0  0  0  0999 V2000
    3.3500   -0.0978    1.6670 F   0  0  0  0  0  0  0  0  0  0  0  0
    3.0441    1.1905   -0.0656 F   0  0  0  0  0  0  0  0  0  0  0  0
    0.6901    0.3761   -1.7820 O   0  0  0  0  0  0  0  0  0  0  0  0
    1.2743   -1.0052   -0.0135 N   0  0  0  0  0  0  0  0  0  0  0  0
   -2.9299    1.0119    0.5182 N   0  0  0  0  0  0  0  0  0  0  0  0
   -0.9365    2.1684   -0.0383 N   0  0  0  0  0  0  0  0  0  0  0  0
    2.6769   -1.1166   -0.3439 C   0  0  0  0  0  0  0  0  0  0  0  0
   -1.0138   -0.2233   -0.2868 C   0  0  0  0  0  0  0  0  0  0  0  0
    0.3618   -0.2567   -0.7640 C   0  0  0  0  0  0  0  0  0  0  0  0
   -1.6559    0.9516    0.0696 C   0  0  0  0  0  0  0  0  0  0  0  0
    3.4909   -0.0296    0.3205 C   0  0  0  0  0  0  0  0  0  0  0  0
   -1.7249   -1.4131   -0.1758 C   0  0  0  0  0  0  0  0  0  0  0  0
   -3.0378   -1.3917    0.2818 C   0  0  0  0  0  0  0  0  0  0  0  0
   -3.5893   -0.1645    0.6129 C   0  0  0  0  0  0  0  0  0  0  0  0
    3.0071   -2.1013   -0.0001 H   0  0  0  0  0  0  0  0  0  0  0  0
    2.7887   -1.0603   -1.4312 H   0  0  0  0  0  0  0  0  0  0  0  0
    0.9485   -1.4839    0.8214 H   0  0  0  0  0  0  0  0  0  0  0  0
    4.5534   -0.1081    0.0754 H   0  0  0  0  0  0  0  0  0  0  0  0
   -1.2724   -2.3639   -0.4453 H   0  0  0  0  0  0  0  0  0  0  0  0
   -3.6116   -2.3066    0.3755 H   0  0  0  0  0  0  0  0  0  0  0  0
   -4.6098   -0.0937    0.9745 H   0  0  0  0  0  0  0  0  0  0  0  0
    0.0667    2.1522    0.0972 H   0  0  0  0  0  0  0  0  0  0  0  0
   -1.4323    3.0112    0.2259 H   0  0  0  0  0  0  0  0  0  0  0  0
  1 11  1  0  0  0  0
  2 11  1  0  0  0  0
  3  9  2  0  0  0  0
  4  7  1  0  0  0  0
  4  9  1  0  0  0  0
  4 17  1  0  0  0  0
  5 10  1  0  0  0  0
  5 14  2  0  0  0  0
  6 10  1  0  0  0  0
  6 22  1  0  0  0  0
  6 23  1  0  0  0  0
  7 11  1  0  0  0  0
  7 15  1  0  0  0  0
  7 16  1  0  0  0  0
  8  9  1  0  0  0  0
  8 10  2  0  0  0  0
  8 12  1  0  0  0  0
 11 18  1  0  0  0  0
 12 13  2  0  0  0  0
 12 19  1  0  0  0  0
 13 14  1  0  0  0  0
 13 20  1  0  0  0  0
 14 21  1  0  0  0  0
M  END
>  <PUBCHEM_COMPOUND_CID>
115408583

>  <PUBCHEM_CONFORMER_RMSD>
0.6

>  <PUBCHEM_CONFORMER_DIVERSEORDER>
1
14
16
11
21
28
24
23
34
12
19
33
31
4
9
32
10
17
13
3
15
6
27
20
22
29
5
25
18
30
2
26
7
8

>  <PUBCHEM_MMFF94_PARTIAL_CHARGES>
20
1 -0.34
10 0.41
11 0.68
12 -0.15
13 -0.15
14 0.16
17 0.37
19 0.15
2 -0.34
20 0.15
21 0.15
22 0.4
23 0.4
3 -0.57
4 -0.73
5 -0.62
6 -0.9
7 0.3
8 0.09
9 0.54

>  <PUBCHEM_EFFECTIVE_ROTOR_COUNT>
4

>  <PUBCHEM_PHARMACOPHORE_FEATURES>
6
1 3 acceptor
1 4 donor
1 5 acceptor
1 6 cation
1 6 donor
6 5 8 10 12 13 14 rings

>  <PUBCHEM_HEAVY_ATOM_COUNT>
14

>  <PUBCHEM_ATOM_DEF_STEREO_COUNT>
0

>  <PUBCHEM_ATOM_UDEF_STEREO_COUNT>
0

>  <PUBCHEM_BOND_DEF_STEREO_COUNT>
0

>  <PUBCHEM_BOND_UDEF_STEREO_COUNT>
0

>  <PUBCHEM_ISOTOPIC_ATOM_COUNT>
0

>  <PUBCHEM_COMPONENT_COUNT>
1

>  <PUBCHEM_CACTVS_TAUTO_COUNT>
9

>  <PUBCHEM_CONFORMER_ID>
06E0FEC700000001

>  <PUBCHEM_MMFF94_ENERGY>
36.5569

>  <PUBCHEM_FEATURE_SELFOVERLAP>
30.446

>  <PUBCHEM_SHAPE_FINGERPRINT>
10857977 72 18342461451993191975
11031198 65 14979963540307304647
11132069 177 18343861121489203515
12251169 10 18335415755871011098
12382932 28 18410299111803458995
12932764 1 17531245028631799430
13296909 8 18336260167694649853
15219456 202 17775012236682397078
15309172 13 16415759730034046055
15775835 57 16917057880748303114
16945 1 18335984160089968207
17804303 29 18124046628137091390
17834072 14 18336255812924820445
18175812 5 17704075092169072350
20361792 2 16370728123296110406
20528008 55 18272086080744384735
20645464 45 17703517618689414903
20653085 51 11095876094697576519
20871998 184 18202007642218147719
21501925 9 18335425715916046783
23402539 116 18201711856689682831
23557571 272 17988375835617802751
23559900 14 18269558247741122982
2748010 2 17759822346643528557
90316 7 18261391109524304945

>  <PUBCHEM_SHAPE_MULTIPOLES>
252.75
6.28
1.57
1.03
2.4
0.39
-0.06
-0.47
2.17
-0.65
-0.02
0.6
0.04
0.01

>  <PUBCHEM_SHAPE_SELFOVERLAP>
523.32

>  <PUBCHEM_SHAPE_VOLUME>
144.6

>  <PUBCHEM_COORDINATE_TYPE>
2
5
10

$$$$
