115486570
 OpenBabel01182520543D

 32 32  0  0  0  0  0  0  0  0999 V2000
    5.8314    1.1164    1.0704 F   0  0  0  0  0  0  0  0  0  0  0  0
    7.0358   -0.4274    0.1015 F   0  0  0  0  0  0  0  0  0  0  0  0
    5.9238    1.0085   -1.1055 F   0  0  0  0  0  0  0  0  0  0  0  0
   -5.9568    1.7561   -0.0105 O   0  0  0  0  0  0  0  0  0  0  0  0
   -0.2744   -1.0169   -0.0125 N   0  0  0  0  0  0  0  0  0  0  0  0
   -2.5593   -1.5906    0.0112 N   0  0  0  0  0  0  0  0  0  0  0  0
   -6.5680   -0.4537    0.0320 N   0  0  0  0  0  0  0  0  0  0  0  0
    2.1623   -0.8289   -0.0392 C   0  0  0  0  0  0  0  0  0  0  0  0
    3.3658    0.1189   -0.0525 C   0  0  0  0  0  0  0  0  0  0  0  0
    0.8286   -0.0867   -0.0302 C   0  0  0  0  0  0  0  0  0  0  0  0
    4.6822   -0.6572    0.0051 C   0  0  0  0  0  0  0  0  0  0  0  0
    5.8807    0.2666    0.0231 C   0  0  0  0  0  0  0  0  0  0  0  0
   -1.6060   -0.6321   -0.0056 C   0  0  0  0  0  0  0  0  0  0  0  0
   -1.8734    0.7274   -0.0166 C   0  0  0  0  0  0  0  0  0  0  0  0
   -3.2046    1.1292   -0.0099 C   0  0  0  0  0  0  0  0  0  0  0  0
   -4.2135    0.1724    0.0073 C   0  0  0  0  0  0  0  0  0  0  0  0
   -3.8416   -1.1622    0.0172 C   0  0  0  0  0  0  0  0  0  0  0  0
   -5.6131    0.5602    0.0147 C   0  0  0  0  0  0  0  0  0  0  0  0
    2.2085   -1.4894   -0.9146 H   0  0  0  0  0  0  0  0  0  0  0  0
    2.2195   -1.4791    0.8434 H   0  0  0  0  0  0  0  0  0  0  0  0
    3.3023    0.7997    0.8050 H   0  0  0  0  0  0  0  0  0  0  0  0
    3.3367    0.7358   -0.9586 H   0  0  0  0  0  0  0  0  0  0  0  0
    0.7956    0.5584    0.8562 H   0  0  0  0  0  0  0  0  0  0  0  0
    0.7786    0.5462   -0.9247 H   0  0  0  0  0  0  0  0  0  0  0  0
    4.7566   -1.3283   -0.8582 H   0  0  0  0  0  0  0  0  0  0  0  0
    4.7028   -1.2840    0.9041 H   0  0  0  0  0  0  0  0  0  0  0  0
   -0.0873   -2.0131   -0.0042 H   0  0  0  0  0  0  0  0  0  0  0  0
   -1.1130    1.4994   -0.0299 H   0  0  0  0  0  0  0  0  0  0  0  0
   -3.4333    2.1915   -0.0181 H   0  0  0  0  0  0  0  0  0  0  0  0
   -4.5425   -1.9871    0.0303 H   0  0  0  0  0  0  0  0  0  0  0  0
   -6.3722   -1.4465    0.0482 H   0  0  0  0  0  0  0  0  0  0  0  0
   -7.5538   -0.2108    0.0307 H   0  0  0  0  0  0  0  0  0  0  0  0
  1 12  1  0  0  0  0
  2 12  1  0  0  0  0
  3 12  1  0  0  0  0
  4 18  2  0  0  0  0
  5 10  1  0  0  0  0
  5 13  1  0  0  0  0
  5 27  1  0  0  0  0
  6 13  2  0  0  0  0
  6 17  1  0  0  0  0
  7 18  1  0  0  0  0
  7 31  1  0  0  0  0
  7 32  1  0  0  0  0
  8  9  1  0  0  0  0
  8 10  1  0  0  0  0
  8 19  1  0  0  0  0
  8 20  1  0  0  0  0
  9 11  1  0  0  0  0
  9 21  1  0  0  0  0
  9 22  1  0  0  0  0
 10 23  1  0  0  0  0
 10 24  1  0  0  0  0
 11 12  1  0  0  0  0
 11 25  1  0  0  0  0
 11 26  1  0  0  0  0
 13 14  1  0  0  0  0
 14 15  2  0  0  0  0
 14 28  1  0  0  0  0
 15 16  1  0  0  0  0
 15 29  1  0  0  0  0
 16 17  2  0  0  0  0
 16 18  1  0  0  0  0
 17 30  1  0  0  0  0
M  END
>  <PUBCHEM_COMPOUND_CID>
115486570

>  <PUBCHEM_CONFORMER_RMSD>
0.8

>  <PUBCHEM_CONFORMER_DIVERSEORDER>
1
19
80
27
84
82
60
4
74
54
78
42
59
62
92
91
26
71
56
45
11
16
63
87
76
7
15
86
17
85
72
30
64
41
61
67
33
22
88
52
79
23
2
83
34
69
58
29
75
46
3
89
36
21
37
32
81
44
31
35
24
8
12
6
77
38
25
57
90
66
39
9
18
65
13
47
55
48
70
5
73
49
20
50
40
53
43
28
14
68
10
51

>  <PUBCHEM_MMFF94_PARTIAL_CHARGES>
21
1 -0.34
10 0.37
12 1.02
13 0.41
14 -0.15
15 -0.15
16 0.09
17 0.16
18 0.54
2 -0.34
27 0.4
28 0.15
29 0.15
3 -0.34
30 0.15
31 0.37
32 0.37
4 -0.57
5 -0.87
6 -0.62
7 -0.8

>  <PUBCHEM_EFFECTIVE_ROTOR_COUNT>
7

>  <PUBCHEM_PHARMACOPHORE_FEATURES>
5
1 4 acceptor
1 5 donor
1 7 donor
3 5 6 13 cation
6 6 13 14 15 16 17 rings

>  <PUBCHEM_HEAVY_ATOM_COUNT>
18

>  <PUBCHEM_ATOM_DEF_STEREO_COUNT>
0

>  <PUBCHEM_ATOM_UDEF_STEREO_COUNT>
0

>  <PUBCHEM_BOND_DEF_STEREO_COUNT>
0

>  <PUBCHEM_BOND_UDEF_STEREO_COUNT>
0

>  <PUBCHEM_ISOTOPIC_ATOM_COUNT>
0

>  <PUBCHEM_COMPONENT_COUNT>
1

>  <PUBCHEM_CACTVS_TAUTO_COUNT>
9

>  <PUBCHEM_CONFORMER_ID>
06E22F6A00000001

>  <PUBCHEM_MMFF94_ENERGY>
43.0996

>  <PUBCHEM_FEATURE_SELFOVERLAP>
25.372

>  <PUBCHEM_SHAPE_FINGERPRINT>
10354089 29 17676488346103230112
106641 1 18335150787292246793
10968037 39 18411981365010499279
11315181 36 17847065501419450130
117890 112 18411418406213903214
12091667 2 18413389839490238671
12236239 1 18040434382208252435
12616971 3 15864357981762897878
13533116 47 16153697692812710248
14251764 18 18408887343669294419
14251764 46 18410854360616573006
14729087 3 18413384323992763896
14933364 13 18411983563806927448
15048467 5 18410292497289845089
15501527 16 18412546500875472899
15716309 27 11891332058420175938
17834076 25 18412262835069860798
20281389 69 18408319977877868488
20621476 66 18410296870099711649
20645477 56 18412543206598711511
20645477 70 17203055067470235510
20767249 213 18334296469865508287
21150785 3 16272203098508103829
220451 1 16008749122004194266
22224240 67 15213020475081242488
23198884 109 16415483740173599451
23402539 116 18341608239322823303
23536379 177 18335138678856448202
23559900 14 18201993369614301937
246663 6 12103555412738453885
300161 21 18409443674366267858
34797466 226 17489875959814356020
3545911 37 18411982451252239654
4073 2 18040722510870494594
42788 4 18411136939800857318
4463277 17 18411136930905019633
542803 24 17821728347185019582
59682541 35 18336555988785256803
59755656 520 17240199949799782107
8209 1 18410855455833207511

>  <PUBCHEM_SHAPE_MULTIPOLES>
327.8
18.97
1.31
0.67
16.04
0.06
-0.01
4.51
0.24
-1.03
0.01
0.54
0.1
0.03

>  <PUBCHEM_SHAPE_SELFOVERLAP>
669.851

>  <PUBCHEM_SHAPE_VOLUME>
190

>  <PUBCHEM_COORDINATE_TYPE>
2
5
10

$$$$
