115408626
 OpenBabel01182520543D

 29 29  0  0  0  0  0  0  0  0999 V2000
   -4.2292   -1.3550   -1.3445 F   0  0  0  0  0  0  0  0  0  0  0  0
   -4.0472    0.8133   -1.2019 F   0  0  0  0  0  0  0  0  0  0  0  0
   -1.9272    1.7266    0.7530 O   0  0  0  0  0  0  0  0  0  0  0  0
    3.9186   -0.5830   -0.0523 N   0  0  0  0  0  0  0  0  0  0  0  0
   -2.3862   -0.5430    0.6303 N   0  0  0  0  0  0  0  0  0  0  0  0
    1.7490   -1.2499    0.6721 N   0  0  0  0  0  0  0  0  0  0  0  0
   -0.1054    0.2839    0.4402 C   0  0  0  0  0  0  0  0  0  0  0  0
    2.5408   -0.3018    0.1228 C   0  0  0  0  0  0  0  0  0  0  0  0
   -3.8194   -0.4327    0.7805 C   0  0  0  0  0  0  0  0  0  0  0  0
    4.8297    0.3551   -0.6226 C   0  0  0  0  0  0  0  0  0  0  0  0
    0.7409    1.2337   -0.1212 C   0  0  0  0  0  0  0  0  0  0  0  0
   -1.5197    0.5573    0.6259 C   0  0  0  0  0  0  0  0  0  0  0  0
    2.0906    0.9430   -0.2866 C   0  0  0  0  0  0  0  0  0  0  0  0
    0.4431   -0.9314    0.8169 C   0  0  0  0  0  0  0  0  0  0  0  0
   -4.5074   -0.2870   -0.5577 C   0  0  0  0  0  0  0  0  0  0  0  0
    6.2289   -0.2291   -0.6549 C   0  0  0  0  0  0  0  0  0  0  0  0
   -4.1574   -1.3436    1.2836 H   0  0  0  0  0  0  0  0  0  0  0  0
   -4.0417    0.4310    1.4147 H   0  0  0  0  0  0  0  0  0  0  0  0
    4.5403    0.6066   -1.6497 H   0  0  0  0  0  0  0  0  0  0  0  0
    4.8626    1.2784   -0.0322 H   0  0  0  0  0  0  0  0  0  0  0  0
    4.2343   -1.4974    0.2503 H   0  0  0  0  0  0  0  0  0  0  0  0
    0.3656    2.2028   -0.4392 H   0  0  0  0  0  0  0  0  0  0  0  0
    2.7213    1.7049   -0.7290 H   0  0  0  0  0  0  0  0  0  0  0  0
   -2.0225   -1.4750    0.4616 H   0  0  0  0  0  0  0  0  0  0  0  0
   -0.1379   -1.7175    1.2877 H   0  0  0  0  0  0  0  0  0  0  0  0
   -5.5923   -0.2036   -0.4516 H   0  0  0  0  0  0  0  0  0  0  0  0
    6.5756   -0.4775    0.3540 H   0  0  0  0  0  0  0  0  0  0  0  0
    6.2594   -1.1458   -1.2537 H   0  0  0  0  0  0  0  0  0  0  0  0
    6.9326    0.4868   -1.0910 H   0  0  0  0  0  0  0  0  0  0  0  0
  1 15  1  0  0  0  0
  2 15  1  0  0  0  0
  3 12  2  0  0  0  0
  4  8  1  0  0  0  0
  4 10  1  0  0  0  0
  4 21  1  0  0  0  0
  5  9  1  0  0  0  0
  5 12  1  0  0  0  0
  5 24  1  0  0  0  0
  6  8  2  0  0  0  0
  6 14  1  0  0  0  0
  7 11  1  0  0  0  0
  7 12  1  0  0  0  0
  7 14  2  0  0  0  0
  8 13  1  0  0  0  0
  9 15  1  0  0  0  0
  9 17  1  0  0  0  0
  9 18  1  0  0  0  0
 10 16  1  0  0  0  0
 10 19  1  0  0  0  0
 10 20  1  0  0  0  0
 11 13  2  0  0  0  0
 11 22  1  0  0  0  0
 13 23  1  0  0  0  0
 14 25  1  0  0  0  0
 15 26  1  0  0  0  0
 16 27  1  0  0  0  0
 16 28  1  0  0  0  0
 16 29  1  0  0  0  0
M  END
>  <PUBCHEM_COMPOUND_CID>
115408626

>  <PUBCHEM_CONFORMER_RMSD>
0.8

>  <PUBCHEM_CONFORMER_DIVERSEORDER>
1
11
3
25
30
28
19
31
17
29
23
7
2
32
26
33
24
15
10
13
16
12
9
5
14
18
20
22
27
4
21
6
8

>  <PUBCHEM_MMFF94_PARTIAL_CHARGES>
20
1 -0.34
10 0.37
11 -0.15
12 0.54
13 -0.15
14 0.16
15 0.68
2 -0.34
21 0.4
22 0.15
23 0.15
24 0.37
25 0.15
3 -0.57
4 -0.87
5 -0.73
6 -0.62
7 0.09
8 0.41
9 0.3

>  <PUBCHEM_EFFECTIVE_ROTOR_COUNT>
6

>  <PUBCHEM_PHARMACOPHORE_FEATURES>
5
1 3 acceptor
1 4 donor
1 5 donor
3 4 6 8 cation
6 6 7 8 11 13 14 rings

>  <PUBCHEM_HEAVY_ATOM_COUNT>
16

>  <PUBCHEM_ATOM_DEF_STEREO_COUNT>
0

>  <PUBCHEM_ATOM_UDEF_STEREO_COUNT>
0

>  <PUBCHEM_BOND_DEF_STEREO_COUNT>
0

>  <PUBCHEM_BOND_UDEF_STEREO_COUNT>
0

>  <PUBCHEM_ISOTOPIC_ATOM_COUNT>
0

>  <PUBCHEM_COMPONENT_COUNT>
1

>  <PUBCHEM_CACTVS_TAUTO_COUNT>
9

>  <PUBCHEM_CONFORMER_ID>
06E0FEF200000001

>  <PUBCHEM_MMFF94_ENERGY>
35.4179

>  <PUBCHEM_FEATURE_SELFOVERLAP>
25.372

>  <PUBCHEM_SHAPE_FINGERPRINT>
11046707 91 17489586779460340967
11089746 13 12396299300521248790
11401426 45 18040155128198969824
117890 112 13767929035749847150
11806522 49 18412546526492328384
12500047 106 14851892486218238520
12670543 26 18040436551820916742
13288520 33 17203612588151950983
13862211 1 18409167701965324058
14251718 22 17846781819388692172
14350574 20 18261960742852507755
14576447 43 18412819209370628543
14911166 2 18259989288296585954
14993402 34 18334861623501155890
15048467 5 12468639447983979534
15501527 24 18408606989367818318
17834072 33 18272654567148196468
18186145 218 17603862334523769161
200 152 18410573985325628513
20645477 56 11963391855702506098
20645477 70 17385719141394421786
21029758 11 18410296925855314840
21267235 1 18340777026287165011
21637258 2 16773792563747873806
231179 274 16298385768889712546
23402539 116 17917998256418214616
23402655 69 18261105223826807797
23557571 272 16773524273761924145
23559900 14 18337959016861608872
2916195 48 13406797756830929718
42 15 12391514187119848706
603831 33 18410568457771472395
7495541 125 16128653085426609578

>  <PUBCHEM_SHAPE_MULTIPOLES>
293.91
11.33
1.26
1.01
6.43
0.15
-0.18
-1.39
-4.51
-0.34
0.09
-0.91
-0.07
-0.36

>  <PUBCHEM_SHAPE_SELFOVERLAP>
598.679

>  <PUBCHEM_SHAPE_VOLUME>
170.5

>  <PUBCHEM_COORDINATE_TYPE>
2
5
10

$$$$
