115408636
 OpenBabel01182520543D

 23 23  0  0  0  0  0  0  0  0999 V2000
   -3.5612    1.3396    1.1443 F   0  0  0  0  0  0  0  0  0  0  0  0
   -3.3388   -0.8267    1.0315 F   0  0  0  0  0  0  0  0  0  0  0  0
   -1.0633   -1.7212   -0.7497 O   0  0  0  0  0  0  0  0  0  0  0  0
   -1.5618    0.5423   -0.6785 N   0  0  0  0  0  0  0  0  0  0  0  0
    2.8220   -0.9707    0.6188 N   0  0  0  0  0  0  0  0  0  0  0  0
    4.6916    0.5051    0.5597 N   0  0  0  0  0  0  0  0  0  0  0  0
   -2.9777    0.4105   -0.9367 C   0  0  0  0  0  0  0  0  0  0  0  0
    0.7090   -0.2504   -0.3093 C   0  0  0  0  0  0  0  0  0  0  0  0
   -0.6830   -0.5454   -0.6003 C   0  0  0  0  0  0  0  0  0  0  0  0
   -3.7637    0.2629    0.3461 C   0  0  0  0  0  0  0  0  0  0  0  0
    1.2694    0.9748   -0.6531 C   0  0  0  0  0  0  0  0  0  0  0  0
    1.5205   -1.1809    0.3195 C   0  0  0  0  0  0  0  0  0  0  0  0
    2.6052    1.2284   -0.3618 C   0  0  0  0  0  0  0  0  0  0  0  0
    3.3318    0.2317    0.2695 C   0  0  0  0  0  0  0  0  0  0  0  0
   -3.2890    1.3133   -1.4706 H   0  0  0  0  0  0  0  0  0  0  0  0
   -3.1391   -0.4602   -1.5799 H   0  0  0  0  0  0  0  0  0  0  0  0
   -1.2252    1.4803   -0.4885 H   0  0  0  0  0  0  0  0  0  0  0  0
   -4.8361    0.1633    0.1583 H   0  0  0  0  0  0  0  0  0  0  0  0
    0.7075    1.7455   -1.1722 H   0  0  0  0  0  0  0  0  0  0  0  0
    1.1462   -2.1553    0.6186 H   0  0  0  0  0  0  0  0  0  0  0  0
    3.0511    2.1802   -0.6319 H   0  0  0  0  0  0  0  0  0  0  0  0
    5.1894    1.1570   -0.0341 H   0  0  0  0  0  0  0  0  0  0  0  0
    5.2203   -0.2284    1.0154 H   0  0  0  0  0  0  0  0  0  0  0  0
  1 10  1  0  0  0  0
  2 10  1  0  0  0  0
  3  9  2  0  0  0  0
  4  7  1  0  0  0  0
  4  9  1  0  0  0  0
  4 17  1  0  0  0  0
  5 12  1  0  0  0  0
  5 14  2  0  0  0  0
  6 14  1  0  0  0  0
  6 22  1  0  0  0  0
  6 23  1  0  0  0  0
  7 10  1  0  0  0  0
  7 15  1  0  0  0  0
  7 16  1  0  0  0  0
  8  9  1  0  0  0  0
  8 11  1  0  0  0  0
  8 12  2  0  0  0  0
 10 18  1  0  0  0  0
 11 13  2  0  0  0  0
 11 19  1  0  0  0  0
 12 20  1  0  0  0  0
 13 14  1  0  0  0  0
 13 21  1  0  0  0  0
M  END
>  <PUBCHEM_COMPOUND_CID>
115408636

>  <PUBCHEM_CONFORMER_RMSD>
0.6

>  <PUBCHEM_CONFORMER_DIVERSEORDER>
2
14
15
21
17
13
5
18
12
3
22
20
8
16
11
19
10
7
4
6
1
9

>  <PUBCHEM_MMFF94_PARTIAL_CHARGES>
20
1 -0.34
10 0.68
11 -0.15
12 0.16
13 -0.15
14 0.41
17 0.37
19 0.15
2 -0.34
20 0.15
21 0.15
22 0.4
23 0.4
3 -0.57
4 -0.73
5 -0.62
6 -0.9
7 0.3
8 0.09
9 0.54

>  <PUBCHEM_EFFECTIVE_ROTOR_COUNT>
4

>  <PUBCHEM_PHARMACOPHORE_FEATURES>
5
1 3 acceptor
1 4 donor
1 6 donor
3 5 6 14 cation
6 5 8 11 12 13 14 rings

>  <PUBCHEM_HEAVY_ATOM_COUNT>
14

>  <PUBCHEM_ATOM_DEF_STEREO_COUNT>
0

>  <PUBCHEM_ATOM_UDEF_STEREO_COUNT>
0

>  <PUBCHEM_BOND_DEF_STEREO_COUNT>
0

>  <PUBCHEM_BOND_UDEF_STEREO_COUNT>
0

>  <PUBCHEM_ISOTOPIC_ATOM_COUNT>
0

>  <PUBCHEM_COMPONENT_COUNT>
1

>  <PUBCHEM_CACTVS_TAUTO_COUNT>
9

>  <PUBCHEM_CONFORMER_ID>
06E0FEFC00000002

>  <PUBCHEM_MMFF94_ENERGY>
33.5501

>  <PUBCHEM_FEATURE_SELFOVERLAP>
25.372

>  <PUBCHEM_SHAPE_FINGERPRINT>
10465860 228 17843976848845400103
10980938 120 18334572421793961630
11471102 22 17822015293559746688
12251169 10 18261116287688701999
12500047 106 16128366108396320006
13675066 3 18187355533096720900
14144814 61 18410570673768654285
14252887 29 17968093089001791954
14943859 89 16773799199044935079
15309172 13 18411416207085399743
15653759 3 17095520669366868709
15775835 57 17704071759648964441
17844478 74 17385719171237289236
18186145 218 18272654506448727972
200 152 18339630235849247055
20233049 118 17704070685833482728
20279233 1 17458060448229042999
20281475 54 11963385241400376077
20361792 2 12685097011919963663
20645477 70 18044073701287967311
21119208 17 9871751299296665144
21256008 23 18259983777785168316
22485316 2 14562521869216292412
22926399 65 16917068845430694377
23402539 116 16917342624063568972
23557571 272 14692565555199401485
25 1 13542473050596847853
2748010 2 17903057955292011324
4028521 119 15123513558485548473
93112 12 12031780370843413997

>  <PUBCHEM_SHAPE_MULTIPOLES>
252.75
7.61
1.34
0.97
0.48
0.18
0.06
-1.54
2.49
-0.09
-0.03
0.65
-0.04
-0.31

>  <PUBCHEM_SHAPE_SELFOVERLAP>
522.613

>  <PUBCHEM_SHAPE_VOLUME>
144.6

>  <PUBCHEM_COORDINATE_TYPE>
2
5
10

$$$$
