115408596
 OpenBabel01182520543D

 29 29  0  0  0  0  0  0  0  0999 V2000
    3.0549   -0.3149    1.1680 F   0  0  0  0  0  0  0  0  0  0  0  0
    3.3682    0.7995   -0.6799 F   0  0  0  0  0  0  0  0  0  0  0  0
    0.5852   -2.0612    1.1273 O   0  0  0  0  0  0  0  0  0  0  0  0
   -0.3301    1.4510    0.1138 N   0  0  0  0  0  0  0  0  0  0  0  0
    1.1729   -0.9651   -0.8298 N   0  0  0  0  0  0  0  0  0  0  0  0
   -2.6507    1.0135   -0.0959 N   0  0  0  0  0  0  0  0  0  0  0  0
   -1.0928   -0.8298    0.0476 C   0  0  0  0  0  0  0  0  0  0  0  0
   -1.3964    0.5218    0.0175 C   0  0  0  0  0  0  0  0  0  0  0  0
   -0.5350    2.8623    0.0926 C   0  0  0  0  0  0  0  0  0  0  0  0
    0.2694   -1.3294    0.1740 C   0  0  0  0  0  0  0  0  0  0  0  0
    2.5511   -1.3995   -0.8580 C   0  0  0  0  0  0  0  0  0  0  0  0
   -2.1442   -1.7352   -0.0446 C   0  0  0  0  0  0  0  0  0  0  0  0
    0.7908    3.5847    0.2356 C   0  0  0  0  0  0  0  0  0  0  0  0
    3.4518   -0.4333   -0.1226 C   0  0  0  0  0  0  0  0  0  0  0  0
   -3.4485   -1.2677   -0.1625 C   0  0  0  0  0  0  0  0  0  0  0  0
   -3.6466    0.1035   -0.1831 C   0  0  0  0  0  0  0  0  0  0  0  0
    0.5304    1.1049    0.5258 H   0  0  0  0  0  0  0  0  0  0  0  0
   -1.0057    3.1655   -0.8497 H   0  0  0  0  0  0  0  0  0  0  0  0
   -1.1960    3.1671    0.9122 H   0  0  0  0  0  0  0  0  0  0  0  0
    2.6167   -2.3944   -0.4068 H   0  0  0  0  0  0  0  0  0  0  0  0
    2.8427   -1.4633   -1.9105 H   0  0  0  0  0  0  0  0  0  0  0  0
    0.8523   -0.3655   -1.5849 H   0  0  0  0  0  0  0  0  0  0  0  0
   -1.9616   -2.8064   -0.0273 H   0  0  0  0  0  0  0  0  0  0  0  0
    1.2783    3.3308    1.1831 H   0  0  0  0  0  0  0  0  0  0  0  0
    1.4759    3.3139   -0.5752 H   0  0  0  0  0  0  0  0  0  0  0  0
    0.6406    4.6684    0.2090 H   0  0  0  0  0  0  0  0  0  0  0  0
    4.4964   -0.7554   -0.1405 H   0  0  0  0  0  0  0  0  0  0  0  0
   -4.2835   -1.9549   -0.2361 H   0  0  0  0  0  0  0  0  0  0  0  0
   -4.6448    0.5190   -0.2734 H   0  0  0  0  0  0  0  0  0  0  0  0
  1 14  1  0  0  0  0
  2 14  1  0  0  0  0
  3 10  2  0  0  0  0
  4  8  1  0  0  0  0
  4  9  1  0  0  0  0
  4 17  1  0  0  0  0
  5 10  1  0  0  0  0
  5 11  1  0  0  0  0
  5 22  1  0  0  0  0
  6  8  1  0  0  0  0
  6 16  2  0  0  0  0
  7  8  2  0  0  0  0
  7 10  1  0  0  0  0
  7 12  1  0  0  0  0
  9 13  1  0  0  0  0
  9 18  1  0  0  0  0
  9 19  1  0  0  0  0
 11 14  1  0  0  0  0
 11 20  1  0  0  0  0
 11 21  1  0  0  0  0
 12 15  2  0  0  0  0
 12 23  1  0  0  0  0
 13 24  1  0  0  0  0
 13 25  1  0  0  0  0
 13 26  1  0  0  0  0
 14 27  1  0  0  0  0
 15 16  1  0  0  0  0
 15 28  1  0  0  0  0
 16 29  1  0  0  0  0
M  END
>  <PUBCHEM_COMPOUND_CID>
115408596

>  <PUBCHEM_CONFORMER_RMSD>
0.8

>  <PUBCHEM_CONFORMER_DIVERSEORDER>
1
8
22
14
24
11
15
7
21
19
3
5
13
20
18
2
17
12
4
10
6
16
23
9

>  <PUBCHEM_MMFF94_PARTIAL_CHARGES>
20
1 -0.34
10 0.54
11 0.3
12 -0.15
14 0.68
15 -0.15
16 0.16
17 0.4
2 -0.34
22 0.37
23 0.15
28 0.15
29 0.15
3 -0.57
4 -0.87
5 -0.73
6 -0.62
7 0.09
8 0.41
9 0.37

>  <PUBCHEM_EFFECTIVE_ROTOR_COUNT>
6

>  <PUBCHEM_PHARMACOPHORE_FEATURES>
6
1 3 acceptor
1 4 cation
1 4 donor
1 5 donor
1 6 acceptor
6 6 7 8 12 15 16 rings

>  <PUBCHEM_HEAVY_ATOM_COUNT>
16

>  <PUBCHEM_ATOM_DEF_STEREO_COUNT>
0

>  <PUBCHEM_ATOM_UDEF_STEREO_COUNT>
0

>  <PUBCHEM_BOND_DEF_STEREO_COUNT>
0

>  <PUBCHEM_BOND_UDEF_STEREO_COUNT>
0

>  <PUBCHEM_ISOTOPIC_ATOM_COUNT>
0

>  <PUBCHEM_COMPONENT_COUNT>
1

>  <PUBCHEM_CACTVS_TAUTO_COUNT>
9

>  <PUBCHEM_CONFORMER_ID>
06E0FED400000001

>  <PUBCHEM_MMFF94_ENERGY>
38.5646

>  <PUBCHEM_FEATURE_SELFOVERLAP>
30.447

>  <PUBCHEM_SHAPE_FINGERPRINT>
108231 29 18335149729675581475
10989021 7 18268710678915658855
11132069 177 18412821374070750690
14790565 3 18052547565053944073
15006816 218 17908421703466990176
16945 1 18265620870563058887
18186145 218 17967817141157868174
18785283 64 18046358693199590633
193761 8 17762619890381562159
19868273 325 18411138021926900655
21041028 32 18269573770132557225
21524375 3 17037273796003746689
22213442 358 18342175617762137959
22802520 49 17843131298386306894
23402539 116 18343010082478656702
23419403 2 17973130071421388565
23557571 272 18201728305749736166
23559900 14 18268991990816072470
2748010 2 17974565011969224319
353137 74 18264770956601373569
537710 114 18335428979769406101
5939293 188 18340200907605493344
7364860 26 18125721442160074841
81228 2 18196950880450780065
9925002 15 17055250166914936678

>  <PUBCHEM_SHAPE_MULTIPOLES>
293.91
5.63
3.18
0.83
0.84
3.69
0.08
-1.77
-0.59
0.5
0.28
0.43
-0.25
0.08

>  <PUBCHEM_SHAPE_SELFOVERLAP>
599.05

>  <PUBCHEM_SHAPE_VOLUME>
170.9

>  <PUBCHEM_COORDINATE_TYPE>
2
5
10

$$$$
