11558021
 OpenBabel01182520543D

 43 43  0  0  0  0  0  0  0  0999 V2000
    3.6454    1.9010   -0.4024 O   0  0  0  0  0  0  0  0  0  0  0  0
    3.6306   -0.1824    0.6154 N   0  0  0  0  0  0  0  0  0  0  0  0
   -2.5926    1.0585    0.0044 N   0  0  0  0  0  0  0  0  0  0  0  0
   -0.5077    2.2112    0.0328 N   0  0  0  0  0  0  0  0  0  0  0  0
   -8.1302   -1.8517   -0.0411 N   0  0  0  0  0  0  0  0  0  0  0  0
    5.5841   -1.5571   -0.0306 C   0  0  0  0  0  0  0  0  0  0  0  0
   -4.8967    0.2316   -0.0328 C   0  0  0  0  0  0  0  0  0  0  0  0
    5.0647   -0.3271    0.7219 C   0  0  0  0  0  0  0  0  0  0  0  0
   -5.8020   -1.0069   -0.0485 C   0  0  0  0  0  0  0  0  0  0  0  0
   -3.4129   -0.1293   -0.0127 C   0  0  0  0  0  0  0  0  0  0  0  0
    5.2589   -1.4367   -1.5198 C   0  0  0  0  0  0  0  0  0  0  0  0
    4.9931   -2.8529    0.5295 C   0  0  0  0  0  0  0  0  0  0  0  0
   -7.2917   -0.6597   -0.0070 C   0  0  0  0  0  0  0  0  0  0  0  0
   -1.2070    1.0366    0.0164 C   0  0  0  0  0  0  0  0  0  0  0  0
    3.0034    0.9366    0.0529 C   0  0  0  0  0  0  0  0  0  0  0  0
    1.5511    0.9439    0.0409 C   0  0  0  0  0  0  0  0  0  0  0  0
   -0.5612   -0.2058    0.0118 C   0  0  0  0  0  0  0  0  0  0  0  0
    0.8287   -0.2440    0.0242 C   0  0  0  0  0  0  0  0  0  0  0  0
    0.8420    2.1342    0.0445 C   0  0  0  0  0  0  0  0  0  0  0  0
    6.6740   -1.5950    0.0882 H   0  0  0  0  0  0  0  0  0  0  0  0
   -5.1340    0.8439    0.8466 H   0  0  0  0  0  0  0  0  0  0  0  0
   -5.1132    0.8519   -0.9117 H   0  0  0  0  0  0  0  0  0  0  0  0
    5.2951   -0.4149    1.7895 H   0  0  0  0  0  0  0  0  0  0  0  0
    5.5621    0.5771    0.3548 H   0  0  0  0  0  0  0  0  0  0  0  0
   -5.5555   -1.6437    0.8107 H   0  0  0  0  0  0  0  0  0  0  0  0
   -5.5869   -1.5939   -0.9506 H   0  0  0  0  0  0  0  0  0  0  0  0
   -3.2131   -0.7389    0.8770 H   0  0  0  0  0  0  0  0  0  0  0  0
   -3.1896   -0.7307   -0.9024 H   0  0  0  0  0  0  0  0  0  0  0  0
    5.7114   -2.2645   -2.0768 H   0  0  0  0  0  0  0  0  0  0  0  0
    5.6572   -0.5036   -1.9323 H   0  0  0  0  0  0  0  0  0  0  0  0
    4.1808   -1.4621   -1.7110 H   0  0  0  0  0  0  0  0  0  0  0  0
    5.4500   -3.7215    0.0429 H   0  0  0  0  0  0  0  0  0  0  0  0
    5.1852   -2.9348    1.6044 H   0  0  0  0  0  0  0  0  0  0  0  0
    3.9119   -2.9167    0.3692 H   0  0  0  0  0  0  0  0  0  0  0  0
   -7.5462   -0.0186   -0.8584 H   0  0  0  0  0  0  0  0  0  0  0  0
   -7.5143   -0.0966    0.9058 H   0  0  0  0  0  0  0  0  0  0  0  0
    3.0682   -0.8985    1.0627 H   0  0  0  0  0  0  0  0  0  0  0  0
   -3.0352    1.9705    0.0089 H   0  0  0  0  0  0  0  0  0  0  0  0
   -1.0928   -1.1512   -0.0067 H   0  0  0  0  0  0  0  0  0  0  0  0
    1.3123   -1.2160   -0.0070 H   0  0  0  0  0  0  0  0  0  0  0  0
    1.3431    3.0973    0.0609 H   0  0  0  0  0  0  0  0  0  0  0  0
   -7.9518   -2.3718   -0.8992 H   0  0  0  0  0  0  0  0  0  0  0  0
   -9.1106   -1.5751   -0.0725 H   0  0  0  0  0  0  0  0  0  0  0  0
  1 15  2  0  0  0  0
  2  8  1  0  0  0  0
  2 15  1  0  0  0  0
  2 37  1  0  0  0  0
  3 10  1  0  0  0  0
  3 14  1  0  0  0  0
  3 38  1  0  0  0  0
  4 14  2  0  0  0  0
  4 19  1  0  0  0  0
  5 13  1  0  0  0  0
  5 42  1  0  0  0  0
  5 43  1  0  0  0  0
  6  8  1  0  0  0  0
  6 11  1  0  0  0  0
  6 12  1  0  0  0  0
  6 20  1  0  0  0  0
  7  9  1  0  0  0  0
  7 10  1  0  0  0  0
  7 21  1  0  0  0  0
  7 22  1  0  0  0  0
  8 23  1  0  0  0  0
  8 24  1  0  0  0  0
  9 13  1  0  0  0  0
  9 25  1  0  0  0  0
  9 26  1  0  0  0  0
 10 27  1  0  0  0  0
 10 28  1  0  0  0  0
 11 29  1  0  0  0  0
 11 30  1  0  0  0  0
 11 31  1  0  0  0  0
 12 32  1  0  0  0  0
 12 33  1  0  0  0  0
 12 34  1  0  0  0  0
 13 35  1  0  0  0  0
 13 36  1  0  0  0  0
 14 17  1  0  0  0  0
 15 16  1  0  0  0  0
 16 18  1  0  0  0  0
 16 19  2  0  0  0  0
 17 18  2  0  0  0  0
 17 39  1  0  0  0  0
 18 40  1  0  0  0  0
 19 41  1  0  0  0  0
M  END
>  <PUBCHEM_COMPOUND_CID>
11558021

>  <PUBCHEM_CONFORMER_RMSD>
0.8

>  <PUBCHEM_CONFORMER_DIVERSEORDER>
1
142
194
103
177
135
173
95
280
184
235
71
55
196
192
165
69
277
154
9
153
161
270
7
193
33
158
232
208
120
61
115
80
85
91
86
92
8
96
104
186
169
185
124
125
178
199
100
159
102
254
156
216
222
141
205
201
183
106
241
268
247
170
187
181
66
162
75
10
245
136
234
111
72
88
203
155
77
258
143
282
221
267
107
266
275
63
105
127
43
110
74
174
179
217
176
160
213
68
49
132
32
231
273
167
218
97
38
64
248
146
175
31
28
209
202
188
272
147
53
189
214
62
117
30
206
236
261
131
47
58
133
42
257
252
87
134
150
109
239
265
99
149
81
34
244
57
113
259
122
94
164
139
157
126
226
283
191
262
130
128
166
242
246
108
198
137
138
168
114
6
70
16
119
260
44
225
89
116
148
48
279
151
60
11
163
278
121
83
144
17
98
101
253
212
255
243
112
256
46
129
123
250
2
56
24
90
171
5
223
251
274
54
180
50
152
224
204
79
240
37
271
84
281
73
65
29
145
276
93
237
22
15
41
172
4
19
264
12
3
228
14
215
140
52
23
78
182
118
284
211
51
82
249
26
227
59
67
269
76
207
27
21
233
40
238
200
45
39
18
36
13
220
25
229
263
35
210
197
230
20
190
195
219

>  <PUBCHEM_MMFF94_PARTIAL_CHARGES>
21
1 -0.57
10 0.37
13 0.27
14 0.41
15 0.54
16 0.09
17 -0.15
18 -0.15
19 0.16
2 -0.73
3 -0.87
37 0.37
38 0.4
39 0.15
4 -0.62
40 0.15
41 0.15
42 0.36
43 0.36
5 -0.99
8 0.3

>  <PUBCHEM_EFFECTIVE_ROTOR_COUNT>
9

>  <PUBCHEM_PHARMACOPHORE_FEATURES>
8
1 1 acceptor
1 2 donor
1 3 donor
1 5 cation
1 5 donor
3 3 4 14 cation
3 6 11 12 hydrophobe
6 4 14 16 17 18 19 rings

>  <PUBCHEM_HEAVY_ATOM_COUNT>
19

>  <PUBCHEM_ATOM_DEF_STEREO_COUNT>
0

>  <PUBCHEM_ATOM_UDEF_STEREO_COUNT>
0

>  <PUBCHEM_BOND_DEF_STEREO_COUNT>
0

>  <PUBCHEM_BOND_UDEF_STEREO_COUNT>
0

>  <PUBCHEM_ISOTOPIC_ATOM_COUNT>
0

>  <PUBCHEM_COMPONENT_COUNT>
1

>  <PUBCHEM_CACTVS_TAUTO_COUNT>
5

>  <PUBCHEM_CONFORMER_ID>
00B05C8500000001

>  <PUBCHEM_MMFF94_ENERGY>
34.2423

>  <PUBCHEM_FEATURE_SELFOVERLAP>
40.596

>  <PUBCHEM_SHAPE_FINGERPRINT>
10 15 12535341316361397655
10316853 100 18411421708912859478
117890 112 9079111159367397602
12236239 1 18201441406957389265
125118 31 9799422122251663895
13533116 47 18343863342298694536
13668630 136 18335137596825506195
13685833 64 18410855455917785523
13862211 1 18409448059506680779
13955234 65 18198899395808446536
14123256 34 18410016533252307283
14216079 64 18411417302729457855
14251757 52 9871754585601170791
1768 124 17917991689608840175
18222031 100 18040716961202821020
19784866 240 18409172108396021849
20028762 73 18344146986034079143
20397935 70 17775852298395287262
20621476 38 18411982442667969559
20645477 70 18261108578375497008
21095086 4 17486504707172790422
21150785 3 17095529504198966790
21267235 1 18411984645690325623
23522609 53 18121252850695765172
23559900 14 18040999591304129985
28498 318 18409163304187500551
29717793 49 18259704505952646301
3004659 81 18113335314570626992
33532 11 18409728478691992059
34797466 226 16588026852635087477
4340502 62 14549019874964494836
465052 167 18343302544282176526
5104073 3 18059005078320865384
59682541 52 13407070346032060226
59755656 215 17894910715917515483
6025842 7 18262241122913530740
77188 2 18411418423078508529

>  <PUBCHEM_SHAPE_MULTIPOLES>
365.22
18.7
2.36
0.79
29.05
0.23
-0.16
16
-0.62
-2.08
0.03
-1
0.22
-0.02

>  <PUBCHEM_SHAPE_SELFOVERLAP>
722.361

>  <PUBCHEM_SHAPE_VOLUME>
216.7

>  <PUBCHEM_COORDINATE_TYPE>
2
5
10

$$$$
