115522092
 OpenBabel01182520543D

 29 29  0  0  0  0  0  0  0  0999 V2000
   -4.3292    2.1500    0.1781 F   0  0  0  0  0  0  0  0  0  0  0  0
   -3.7423    0.9089   -1.5161 F   0  0  0  0  0  0  0  0  0  0  0  0
   -5.2374    0.1868   -0.0962 F   0  0  0  0  0  0  0  0  0  0  0  0
    0.5375   -2.2153   -0.9225 O   0  0  0  0  0  0  0  0  0  0  0  0
   -0.3015   -1.0553    0.9029 N   0  0  0  0  0  0  0  0  0  0  0  0
    4.2410   -0.3011   -0.5320 N   0  0  0  0  0  0  0  0  0  0  0  0
    5.3770    1.7209    0.0138 N   0  0  0  0  0  0  0  0  0  0  0  0
   -2.6599   -1.1607    0.1929 C   0  0  0  0  0  0  0  0  0  0  0  0
   -1.5359   -1.7826    1.0159 C   0  0  0  0  0  0  0  0  0  0  0  0
   -2.9868    0.2681    0.6336 C   0  0  0  0  0  0  0  0  0  0  0  0
   -4.0844    0.8792   -0.2108 C   0  0  0  0  0  0  0  0  0  0  0  0
    0.6487   -1.3357   -0.0724 C   0  0  0  0  0  0  0  0  0  0  0  0
    1.8835   -0.5106   -0.0389 C   0  0  0  0  0  0  0  0  0  0  0  0
    1.8720    0.7759    0.4887 C   0  0  0  0  0  0  0  0  0  0  0  0
    3.0827   -0.9985   -0.5322 C   0  0  0  0  0  0  0  0  0  0  0  0
    3.0438    1.5245    0.5064 C   0  0  0  0  0  0  0  0  0  0  0  0
    4.1911    0.9456   -0.0113 C   0  0  0  0  0  0  0  0  0  0  0  0
   -2.3777   -1.1597   -0.8672 H   0  0  0  0  0  0  0  0  0  0  0  0
   -3.5556   -1.7863    0.2865 H   0  0  0  0  0  0  0  0  0  0  0  0
   -1.8072   -1.8026    2.0769 H   0  0  0  0  0  0  0  0  0  0  0  0
   -1.3741   -2.8171    0.6935 H   0  0  0  0  0  0  0  0  0  0  0  0
   -3.2952    0.2704    1.6853 H   0  0  0  0  0  0  0  0  0  0  0  0
   -2.0967    0.9024    0.5561 H   0  0  0  0  0  0  0  0  0  0  0  0
   -0.1217   -0.3489    1.6083 H   0  0  0  0  0  0  0  0  0  0  0  0
    0.9664    1.2389    0.8687 H   0  0  0  0  0  0  0  0  0  0  0  0
    3.1622   -1.9957   -0.9541 H   0  0  0  0  0  0  0  0  0  0  0  0
    3.0415    2.5312    0.9115 H   0  0  0  0  0  0  0  0  0  0  0  0
    5.2940    2.7296   -0.0179 H   0  0  0  0  0  0  0  0  0  0  0  0
    6.2116    1.2962   -0.3712 H   0  0  0  0  0  0  0  0  0  0  0  0
  1 11  1  0  0  0  0
  2 11  1  0  0  0  0
  3 11  1  0  0  0  0
  4 12  2  0  0  0  0
  5  9  1  0  0  0  0
  5 12  1  0  0  0  0
  5 24  1  0  0  0  0
  6 15  1  0  0  0  0
  6 17  2  0  0  0  0
  7 17  1  0  0  0  0
  7 28  1  0  0  0  0
  7 29  1  0  0  0  0
  8  9  1  0  0  0  0
  8 10  1  0  0  0  0
  8 18  1  0  0  0  0
  8 19  1  0  0  0  0
  9 20  1  0  0  0  0
  9 21  1  0  0  0  0
 10 11  1  0  0  0  0
 10 22  1  0  0  0  0
 10 23  1  0  0  0  0
 12 13  1  0  0  0  0
 13 14  1  0  0  0  0
 13 15  2  0  0  0  0
 14 16  2  0  0  0  0
 14 25  1  0  0  0  0
 15 26  1  0  0  0  0
 16 17  1  0  0  0  0
 16 27  1  0  0  0  0
M  END
>  <PUBCHEM_COMPOUND_CID>
115522092

>  <PUBCHEM_CONFORMER_RMSD>
0.8

>  <PUBCHEM_CONFORMER_DIVERSEORDER>
2
21
6
28
20
26
11
5
1
18
19
25
14
17
27
8
15
22
12
23
10
3
7
13
9
24
4
16

>  <PUBCHEM_MMFF94_PARTIAL_CHARGES>
21
1 -0.34
11 1.02
12 0.54
13 0.09
14 -0.15
15 0.16
16 -0.15
17 0.41
2 -0.34
24 0.37
25 0.15
26 0.15
27 0.15
28 0.4
29 0.4
3 -0.34
4 -0.57
5 -0.73
6 -0.62
7 -0.9
9 0.3

>  <PUBCHEM_EFFECTIVE_ROTOR_COUNT>
6

>  <PUBCHEM_PHARMACOPHORE_FEATURES>
5
1 4 acceptor
1 5 donor
1 7 donor
3 6 7 17 cation
6 6 13 14 15 16 17 rings

>  <PUBCHEM_HEAVY_ATOM_COUNT>
17

>  <PUBCHEM_ATOM_DEF_STEREO_COUNT>
0

>  <PUBCHEM_ATOM_UDEF_STEREO_COUNT>
0

>  <PUBCHEM_BOND_DEF_STEREO_COUNT>
0

>  <PUBCHEM_BOND_UDEF_STEREO_COUNT>
0

>  <PUBCHEM_ISOTOPIC_ATOM_COUNT>
0

>  <PUBCHEM_COMPONENT_COUNT>
1

>  <PUBCHEM_CACTVS_TAUTO_COUNT>
9

>  <PUBCHEM_CONFORMER_ID>
06E2BA2C00000002

>  <PUBCHEM_MMFF94_ENERGY>
36.6648

>  <PUBCHEM_FEATURE_SELFOVERLAP>
25.372

>  <PUBCHEM_SHAPE_FINGERPRINT>
10498660 4 18115018590212583653
10646746 165 18333735731925973346
11471102 20 18273501174053362578
122479 349 18334579078771847706
12500047 106 18334296517390262826
12596602 18 15140969490565777757
12730499 353 18339370682264568539
13103583 49 12540695873490200741
13740256 8 8862948277543517338
14123255 352 18333448763527764053
14178342 30 17023192681294540570
14251764 38 18336831999593531597
14252887 29 12829480442283442344
17834072 32 18409452492023667457
17834072 8 18342466932888511126
18186145 218 18059871583387760466
193927 3 10807937106174913805
200 152 16917354727175673978
20281475 54 9295281755284942171
20432913 95 8070024471719051565
20645477 56 18335425707167980283
20645477 70 17988937647584674118
221357 26 18202843240985211441
231179 274 18333168362530169922
23402539 116 18130783499452689636
23402655 69 18131635595004469108
23557571 272 18264497337626652451
23559900 14 18411985746088449682
25 1 18411981325812747515
2838139 119 18341325665140686456
4028521 119 18410292493385371977
4325135 7 18341893043854093703
548570 60 18335138700115039101
59682541 35 18114757027257704057
83771 10 8646773291647579362

>  <PUBCHEM_SHAPE_MULTIPOLES>
307.22
10.84
2.07
0.92
2.46
0.06
-0.08
-6.88
-1.31
0.26
0
0.4
0.12
0.91

>  <PUBCHEM_SHAPE_SELFOVERLAP>
630.556

>  <PUBCHEM_SHAPE_VOLUME>
177.1

>  <PUBCHEM_COORDINATE_TYPE>
2
5
10

$$$$
