115522075
 OpenBabel01182520543D

 32 32  0  0  0  0  0  0  0  0999 V2000
   -3.5510    0.7723   -1.3405 F   0  0  0  0  0  0  0  0  0  0  0  0
   -4.9931   -0.2262   -0.0381 F   0  0  0  0  0  0  0  0  0  0  0  0
   -4.1866    1.7223    0.5166 F   0  0  0  0  0  0  0  0  0  0  0  0
    0.8919   -2.1729   -1.2122 O   0  0  0  0  0  0  0  0  0  0  0  0
    0.0099   -1.3355    0.7632 N   0  0  0  0  0  0  0  0  0  0  0  0
    0.7821    1.4308   -0.1159 N   0  0  0  0  0  0  0  0  0  0  0  0
    3.1318    1.6578    0.1030 N   0  0  0  0  0  0  0  0  0  0  0  0
   -2.3461   -1.4624    0.0489 C   0  0  0  0  0  0  0  0  0  0  0  0
   -1.1836   -2.1361    0.7714 C   0  0  0  0  0  0  0  0  0  0  0  0
   -2.7433   -0.1318    0.6926 C   0  0  0  0  0  0  0  0  0  0  0  0
   -3.8792    0.5359   -0.0527 C   0  0  0  0  0  0  0  0  0  0  0  0
    0.9646   -1.4210   -0.2438 C   0  0  0  0  0  0  0  0  0  0  0  0
    2.1547   -0.5449   -0.0927 C   0  0  0  0  0  0  0  0  0  0  0  0
    2.0664    0.8365   -0.0310 C   0  0  0  0  0  0  0  0  0  0  0  0
    3.4178   -1.1205   -0.0115 C   0  0  0  0  0  0  0  0  0  0  0  0
    4.5381   -0.3086    0.1269 C   0  0  0  0  0  0  0  0  0  0  0  0
    4.3431    1.0623    0.1787 C   0  0  0  0  0  0  0  0  0  0  0  0
    0.5823    2.8420   -0.0627 C   0  0  0  0  0  0  0  0  0  0  0  0
   -2.0734   -1.2923   -0.9999 H   0  0  0  0  0  0  0  0  0  0  0  0
   -3.2068   -2.1416    0.0515 H   0  0  0  0  0  0  0  0  0  0  0  0
   -1.4431   -2.3230    1.8188 H   0  0  0  0  0  0  0  0  0  0  0  0
   -0.9708   -3.1030    0.3022 H   0  0  0  0  0  0  0  0  0  0  0  0
   -3.0452   -0.3008    1.7326 H   0  0  0  0  0  0  0  0  0  0  0  0
   -1.8921    0.5553    0.7140 H   0  0  0  0  0  0  0  0  0  0  0  0
    0.1567   -0.6890    1.5332 H   0  0  0  0  0  0  0  0  0  0  0  0
    3.5426   -2.1992   -0.0535 H   0  0  0  0  0  0  0  0  0  0  0  0
    0.0514    0.8748   -0.5466 H   0  0  0  0  0  0  0  0  0  0  0  0
    5.5324   -0.7352    0.1925 H   0  0  0  0  0  0  0  0  0  0  0  0
    5.1842    1.7392    0.2860 H   0  0  0  0  0  0  0  0  0  0  0  0
    0.9441    3.2590    0.8828 H   0  0  0  0  0  0  0  0  0  0  0  0
   -0.4858    3.0694   -0.1369 H   0  0  0  0  0  0  0  0  0  0  0  0
    1.0890    3.3470   -0.8915 H   0  0  0  0  0  0  0  0  0  0  0  0
  1 11  1  0  0  0  0
  2 11  1  0  0  0  0
  3 11  1  0  0  0  0
  4 12  2  0  0  0  0
  5  9  1  0  0  0  0
  5 12  1  0  0  0  0
  5 25  1  0  0  0  0
  6 14  1  0  0  0  0
  6 18  1  0  0  0  0
  6 27  1  0  0  0  0
  7 14  1  0  0  0  0
  7 17  2  0  0  0  0
  8  9  1  0  0  0  0
  8 10  1  0  0  0  0
  8 19  1  0  0  0  0
  8 20  1  0  0  0  0
  9 21  1  0  0  0  0
  9 22  1  0  0  0  0
 10 11  1  0  0  0  0
 10 23  1  0  0  0  0
 10 24  1  0  0  0  0
 12 13  1  0  0  0  0
 13 14  2  0  0  0  0
 13 15  1  0  0  0  0
 15 16  2  0  0  0  0
 15 26  1  0  0  0  0
 16 17  1  0  0  0  0
 16 28  1  0  0  0  0
 17 29  1  0  0  0  0
 18 30  1  0  0  0  0
 18 31  1  0  0  0  0
 18 32  1  0  0  0  0
M  END
>  <PUBCHEM_COMPOUND_CID>
115522075

>  <PUBCHEM_CONFORMER_RMSD>
0.8

>  <PUBCHEM_CONFORMER_DIVERSEORDER>
2
18
33
36
44
46
9
34
15
47
41
32
6
25
14
8
7
45
40
42
13
11
38
23
29
1
3
4
24
10
31
12
17
39
28
5
21
43
37
22
30
27
35
26
20
19
16

>  <PUBCHEM_MMFF94_PARTIAL_CHARGES>
21
1 -0.34
11 1.02
12 0.54
13 0.09
14 0.41
15 -0.15
16 -0.15
17 0.16
18 0.37
2 -0.34
25 0.37
26 0.15
27 0.4
28 0.15
29 0.15
3 -0.34
4 -0.57
5 -0.73
6 -0.87
7 -0.62
9 0.3

>  <PUBCHEM_EFFECTIVE_ROTOR_COUNT>
7

>  <PUBCHEM_PHARMACOPHORE_FEATURES>
6
1 4 acceptor
1 5 donor
1 6 cation
1 6 donor
1 7 acceptor
6 7 13 14 15 16 17 rings

>  <PUBCHEM_HEAVY_ATOM_COUNT>
18

>  <PUBCHEM_ATOM_DEF_STEREO_COUNT>
0

>  <PUBCHEM_ATOM_UDEF_STEREO_COUNT>
0

>  <PUBCHEM_BOND_DEF_STEREO_COUNT>
0

>  <PUBCHEM_BOND_UDEF_STEREO_COUNT>
0

>  <PUBCHEM_ISOTOPIC_ATOM_COUNT>
0

>  <PUBCHEM_COMPONENT_COUNT>
1

>  <PUBCHEM_CACTVS_TAUTO_COUNT>
9

>  <PUBCHEM_CONFORMER_ID>
06E2BA1B00000002

>  <PUBCHEM_MMFF94_ENERGY>
43.7677

>  <PUBCHEM_FEATURE_SELFOVERLAP>
30.447

>  <PUBCHEM_SHAPE_FINGERPRINT>
11132069 177 18410290324347707720
11578080 2 13841708507920522636
116883 192 18197788704533129758
13402501 40 18261106353556388957
14790565 3 17759247684637103100
15196674 1 18410013251427567417
17802600 8 18334293214691897439
18219364 16 18261967288377262467
20233049 118 18187085052972433524
21249577 43 18334574624859067813
21524375 3 18260548935468240139
22892500 29 17346593114941193288
231179 274 18114176415196214699
23402539 116 18342451517591612918
23402655 69 18272369763038821494
23559900 14 18411420605780776706
34934 24 18337104674830443218
351380 180 18335699464225434387
3524813 1 18113610167129975117
5939293 188 18410291453876906672
7832392 63 18339639065911669010

>  <PUBCHEM_SHAPE_MULTIPOLES>
327.8
9.01
2.54
0.83
4.34
0.66
0.11
2.31
-0.13
-0.07
0.03
0.33
-0.18
0.36

>  <PUBCHEM_SHAPE_SELFOVERLAP>
669.147

>  <PUBCHEM_SHAPE_VOLUME>
190

>  <PUBCHEM_COORDINATE_TYPE>
2
5
10

$$$$
