115522145
 OpenBabel01182520543D

 35 35  0  0  0  0  0  0  0  0999 V2000
    3.3370    1.7378   -0.0292 F   0  0  0  0  0  0  0  0  0  0  0  0
    5.2363    1.0733    0.8216 F   0  0  0  0  0  0  0  0  0  0  0  0
    4.7047    0.5289   -1.2219 F   0  0  0  0  0  0  0  0  0  0  0  0
   -1.7105   -2.2775    1.1997 O   0  0  0  0  0  0  0  0  0  0  0  0
   -0.5393   -1.5895   -0.6809 N   0  0  0  0  0  0  0  0  0  0  0  0
   -0.7796    1.2519    0.2636 N   0  0  0  0  0  0  0  0  0  0  0  0
   -3.0102    1.9731   -0.0902 N   0  0  0  0  0  0  0  0  0  0  0  0
    1.6815   -2.2239    0.1720 C   0  0  0  0  0  0  0  0  0  0  0  0
    2.3622   -0.9595   -0.3608 C   0  0  0  0  0  0  0  0  0  0  0  0
    0.4593   -2.6219   -0.6488 C   0  0  0  0  0  0  0  0  0  0  0  0
    3.5456   -0.5552    0.5191 C   0  0  0  0  0  0  0  0  0  0  0  0
    4.2107    0.7103    0.0227 C   0  0  0  0  0  0  0  0  0  0  0  0
   -1.5584   -1.5005    0.2608 C   0  0  0  0  0  0  0  0  0  0  0  0
   -2.5276   -0.3902    0.0733 C   0  0  0  0  0  0  0  0  0  0  0  0
   -2.1503    0.9430    0.0749 C   0  0  0  0  0  0  0  0  0  0  0  0
   -3.8739   -0.6854   -0.1095 C   0  0  0  0  0  0  0  0  0  0  0  0
   -4.7890    0.3471   -0.2828 C   0  0  0  0  0  0  0  0  0  0  0  0
   -4.3105    1.6474   -0.2652 C   0  0  0  0  0  0  0  0  0  0  0  0
   -0.2880    2.5907    0.2816 C   0  0  0  0  0  0  0  0  0  0  0  0
    1.3794   -2.0591    1.2139 H   0  0  0  0  0  0  0  0  0  0  0  0
    2.3976   -3.0542    0.1724 H   0  0  0  0  0  0  0  0  0  0  0  0
    1.6510   -0.1293   -0.4039 H   0  0  0  0  0  0  0  0  0  0  0  0
    2.7081   -1.1375   -1.3862 H   0  0  0  0  0  0  0  0  0  0  0  0
    0.7484   -2.8264   -1.6852 H   0  0  0  0  0  0  0  0  0  0  0  0
    0.0203   -3.5370   -0.2367 H   0  0  0  0  0  0  0  0  0  0  0  0
    4.2838   -1.3648    0.5457 H   0  0  0  0  0  0  0  0  0  0  0  0
    3.2030   -0.3960    1.5481 H   0  0  0  0  0  0  0  0  0  0  0  0
   -0.4959   -0.9059   -1.4314 H   0  0  0  0  0  0  0  0  0  0  0  0
   -4.2225   -1.7146   -0.1204 H   0  0  0  0  0  0  0  0  0  0  0  0
   -0.2176    0.5471    0.7284 H   0  0  0  0  0  0  0  0  0  0  0  0
   -5.8432    0.1407   -0.4272 H   0  0  0  0  0  0  0  0  0  0  0  0
   -4.9834    2.4885   -0.3959 H   0  0  0  0  0  0  0  0  0  0  0  0
   -0.4838    3.0982   -0.6686 H   0  0  0  0  0  0  0  0  0  0  0  0
    0.7951    2.5876    0.4375 H   0  0  0  0  0  0  0  0  0  0  0  0
   -0.7396    3.1695    1.0938 H   0  0  0  0  0  0  0  0  0  0  0  0
  1 12  1  0  0  0  0
  2 12  1  0  0  0  0
  3 12  1  0  0  0  0
  4 13  2  0  0  0  0
  5 10  1  0  0  0  0
  5 13  1  0  0  0  0
  5 28  1  0  0  0  0
  6 15  1  0  0  0  0
  6 19  1  0  0  0  0
  6 30  1  0  0  0  0
  7 15  1  0  0  0  0
  7 18  2  0  0  0  0
  8  9  1  0  0  0  0
  8 10  1  0  0  0  0
  8 20  1  0  0  0  0
  8 21  1  0  0  0  0
  9 11  1  0  0  0  0
  9 22  1  0  0  0  0
  9 23  1  0  0  0  0
 10 24  1  0  0  0  0
 10 25  1  0  0  0  0
 11 12  1  0  0  0  0
 11 26  1  0  0  0  0
 11 27  1  0  0  0  0
 13 14  1  0  0  0  0
 14 15  2  0  0  0  0
 14 16  1  0  0  0  0
 16 17  2  0  0  0  0
 16 29  1  0  0  0  0
 17 18  1  0  0  0  0
 17 31  1  0  0  0  0
 18 32  1  0  0  0  0
 19 33  1  0  0  0  0
 19 34  1  0  0  0  0
 19 35  1  0  0  0  0
M  END
>  <PUBCHEM_COMPOUND_CID>
115522145

>  <PUBCHEM_CONFORMER_RMSD>
0.8

>  <PUBCHEM_CONFORMER_DIVERSEORDER>
4
52
95
14
102
23
76
101
80
90
22
68
15
109
94
84
106
7
108
70
113
2
21
66
93
110
107
42
12
83
111
18
86
75
103
92
82
38
85
58
99
29
64
88
81
17
97
20
105
100
104
25
91
43
6
1
49
13
8
51
57
5
19
28
87
61
71
37
16
32
11
24
112
78
3
9
96
46
55
47
65
31
89
48
26
34
10
33
41
62
44
39
74
36
40
67
54
98
77
50
72
59
27
69
45
30
73
56
63
53
79
35
60

>  <PUBCHEM_MMFF94_PARTIAL_CHARGES>
21
1 -0.34
10 0.3
12 1.02
13 0.54
14 0.09
15 0.41
16 -0.15
17 -0.15
18 0.16
19 0.37
2 -0.34
28 0.37
29 0.15
3 -0.34
30 0.4
31 0.15
32 0.15
4 -0.57
5 -0.73
6 -0.87
7 -0.62

>  <PUBCHEM_EFFECTIVE_ROTOR_COUNT>
8

>  <PUBCHEM_PHARMACOPHORE_FEATURES>
6
1 4 acceptor
1 5 donor
1 6 cation
1 6 donor
1 7 acceptor
6 7 14 15 16 17 18 rings

>  <PUBCHEM_HEAVY_ATOM_COUNT>
19

>  <PUBCHEM_ATOM_DEF_STEREO_COUNT>
0

>  <PUBCHEM_ATOM_UDEF_STEREO_COUNT>
0

>  <PUBCHEM_BOND_DEF_STEREO_COUNT>
0

>  <PUBCHEM_BOND_UDEF_STEREO_COUNT>
0

>  <PUBCHEM_ISOTOPIC_ATOM_COUNT>
0

>  <PUBCHEM_COMPONENT_COUNT>
1

>  <PUBCHEM_CACTVS_TAUTO_COUNT>
9

>  <PUBCHEM_CONFORMER_ID>
06E2BA6100000004

>  <PUBCHEM_MMFF94_ENERGY>
43.5962

>  <PUBCHEM_FEATURE_SELFOVERLAP>
30.447

>  <PUBCHEM_SHAPE_FINGERPRINT>
10498660 4 18413392012184326444
10670039 82 18262814986241506812
10759866 29 18187087252491606746
11112241 14 16484699233903199120
11370993 70 18409444773962122868
12838862 33 18268126773806900464
13402501 40 18342454855071508280
13544592 271 18410299116146074451
14787075 74 18410007728790851019
14790565 3 17549546207062895097
15196674 1 18411698751197574562
15375358 24 18410293605391400978
17834072 32 18412265060179281816
1798214 55 18413106152278154050
20715895 44 17684072596686405717
21618674 68 18128819651041555175
21652331 79 18411417302122517046
22959321 54 18339643343335105474
23227448 37 18271803583264940095
23559900 14 18052814750004210026
351380 180 18411415077593526642
3680242 22 18335701577148832656
4028521 119 18341897385332624942
44154327 71 18411417285085014222
474 4 17821736039344976222
5104073 3 18263086518189572611
526903 126 18339082575551865003
537710 114 18412826871681799457
59755656 215 18339928113506689974
67856867 119 18265886965146396787
6786 2 13178291585432741443
9709674 26 18411423877580687006
9981440 41 18335137591945444899

>  <PUBCHEM_SHAPE_MULTIPOLES>
348.38
9.88
2.9
0.82
5.59
0.31
0
-4.66
0.51
0.09
-0.13
0.31
0.18
0.34

>  <PUBCHEM_SHAPE_SELFOVERLAP>
707.176

>  <PUBCHEM_SHAPE_VOLUME>
202.9

>  <PUBCHEM_COORDINATE_TYPE>
2
5
10

$$$$
