115522150
 OpenBabel01182520543D

 35 35  0  0  0  0  0  0  0  0999 V2000
    6.2124    0.9500   -0.4134 F   0  0  0  0  0  0  0  0  0  0  0  0
    6.7538    0.1859    1.5605 F   0  0  0  0  0  0  0  0  0  0  0  0
    6.3979   -1.1981   -0.0868 F   0  0  0  0  0  0  0  0  0  0  0  0
   -0.5249    1.6924   -1.0005 O   0  0  0  0  0  0  0  0  0  0  0  0
   -0.1520   -0.5915   -0.8388 N   0  0  0  0  0  0  0  0  0  0  0  0
   -4.3323    1.2678    0.6892 N   0  0  0  0  0  0  0  0  0  0  0  0
   -6.2868   -0.0851    0.8516 N   0  0  0  0  0  0  0  0  0  0  0  0
    2.1533   -0.4009    0.0046 C   0  0  0  0  0  0  0  0  0  0  0  0
    3.6344   -0.3495   -0.3820 C   0  0  0  0  0  0  0  0  0  0  0  0
    1.2373   -0.5652   -1.2036 C   0  0  0  0  0  0  0  0  0  0  0  0
    4.5193   -0.1240    0.8444 C   0  0  0  0  0  0  0  0  0  0  0  0
    5.9844   -0.0407    0.4748 C   0  0  0  0  0  0  0  0  0  0  0  0
   -0.9315    0.5575   -0.7660 C   0  0  0  0  0  0  0  0  0  0  0  0
   -2.3441    0.3646   -0.3482 C   0  0  0  0  0  0  0  0  0  0  0  0
   -3.0023   -0.8383   -0.5793 C   0  0  0  0  0  0  0  0  0  0  0  0
   -3.0471    1.3775    0.2839 C   0  0  0  0  0  0  0  0  0  0  0  0
   -4.3247   -0.9893   -0.1770 C   0  0  0  0  0  0  0  0  0  0  0  0
   -4.9392    0.0842    0.4475 C   0  0  0  0  0  0  0  0  0  0  0  0
   -7.0081   -1.2974    0.6389 C   0  0  0  0  0  0  0  0  0  0  0  0
    1.8846    0.5186    0.5403 H   0  0  0  0  0  0  0  0  0  0  0  0
    1.9842   -1.2278    0.7059 H   0  0  0  0  0  0  0  0  0  0  0  0
    3.7937    0.4599   -1.1047 H   0  0  0  0  0  0  0  0  0  0  0  0
    3.9163   -1.2862   -0.8776 H   0  0  0  0  0  0  0  0  0  0  0  0
    1.4037    0.2494   -1.9174 H   0  0  0  0  0  0  0  0  0  0  0  0
    1.4540   -1.5088   -1.7159 H   0  0  0  0  0  0  0  0  0  0  0  0
    4.3741   -0.9388    1.5629 H   0  0  0  0  0  0  0  0  0  0  0  0
    4.2257    0.8052    1.3463 H   0  0  0  0  0  0  0  0  0  0  0  0
   -0.5359   -1.4911   -0.5697 H   0  0  0  0  0  0  0  0  0  0  0  0
   -2.5277   -1.6688   -1.0931 H   0  0  0  0  0  0  0  0  0  0  0  0
   -2.5920    2.3396    0.4981 H   0  0  0  0  0  0  0  0  0  0  0  0
   -4.8112   -1.9367   -0.3770 H   0  0  0  0  0  0  0  0  0  0  0  0
   -6.7319    0.7024    1.3078 H   0  0  0  0  0  0  0  0  0  0  0  0
   -6.5512   -2.1423    1.1650 H   0  0  0  0  0  0  0  0  0  0  0  0
   -7.1067   -1.5325   -0.4262 H   0  0  0  0  0  0  0  0  0  0  0  0
   -8.0234   -1.1887    1.0350 H   0  0  0  0  0  0  0  0  0  0  0  0
  1 12  1  0  0  0  0
  2 12  1  0  0  0  0
  3 12  1  0  0  0  0
  4 13  2  0  0  0  0
  5 10  1  0  0  0  0
  5 13  1  0  0  0  0
  5 28  1  0  0  0  0
  6 16  1  0  0  0  0
  6 18  2  0  0  0  0
  7 18  1  0  0  0  0
  7 19  1  0  0  0  0
  7 32  1  0  0  0  0
  8  9  1  0  0  0  0
  8 10  1  0  0  0  0
  8 20  1  0  0  0  0
  8 21  1  0  0  0  0
  9 11  1  0  0  0  0
  9 22  1  0  0  0  0
  9 23  1  0  0  0  0
 10 24  1  0  0  0  0
 10 25  1  0  0  0  0
 11 12  1  0  0  0  0
 11 26  1  0  0  0  0
 11 27  1  0  0  0  0
 13 14  1  0  0  0  0
 14 15  1  0  0  0  0
 14 16  2  0  0  0  0
 15 17  2  0  0  0  0
 15 29  1  0  0  0  0
 16 30  1  0  0  0  0
 17 18  1  0  0  0  0
 17 31  1  0  0  0  0
 19 33  1  0  0  0  0
 19 34  1  0  0  0  0
 19 35  1  0  0  0  0
M  END
>  <PUBCHEM_COMPOUND_CID>
115522150

>  <PUBCHEM_CONFORMER_RMSD>
0.8

>  <PUBCHEM_CONFORMER_DIVERSEORDER>
25
82
78
63
28
47
84
8
24
20
85
53
76
15
54
46
81
19
65
88
7
40
13
21
89
73
71
77
18
74
64
5
59
67
41
79
51
34
60
87
43
32
80
37
44
23
83
38
68
70
31
49
35
36
57
3
61
10
86
50
75
16
30
6
29
26
14
42
55
9
69
4
72
45
58
52
1
27
48
56
22
2
11
17
39
66
12
62
33

>  <PUBCHEM_MMFF94_PARTIAL_CHARGES>
21
1 -0.34
10 0.3
12 1.02
13 0.54
14 0.09
15 -0.15
16 0.16
17 -0.15
18 0.41
19 0.37
2 -0.34
28 0.37
29 0.15
3 -0.34
30 0.15
31 0.15
32 0.4
4 -0.57
5 -0.73
6 -0.62
7 -0.87

>  <PUBCHEM_EFFECTIVE_ROTOR_COUNT>
8

>  <PUBCHEM_PHARMACOPHORE_FEATURES>
5
1 4 acceptor
1 5 donor
1 7 donor
3 6 7 18 cation
6 6 14 15 16 17 18 rings

>  <PUBCHEM_HEAVY_ATOM_COUNT>
19

>  <PUBCHEM_ATOM_DEF_STEREO_COUNT>
0

>  <PUBCHEM_ATOM_UDEF_STEREO_COUNT>
0

>  <PUBCHEM_BOND_DEF_STEREO_COUNT>
0

>  <PUBCHEM_BOND_UDEF_STEREO_COUNT>
0

>  <PUBCHEM_ISOTOPIC_ATOM_COUNT>
0

>  <PUBCHEM_COMPONENT_COUNT>
1

>  <PUBCHEM_CACTVS_TAUTO_COUNT>
9

>  <PUBCHEM_CONFORMER_ID>
06E2BA6600000019

>  <PUBCHEM_MMFF94_ENERGY>
40.3982

>  <PUBCHEM_FEATURE_SELFOVERLAP>
25.372

>  <PUBCHEM_SHAPE_FINGERPRINT>
10 15 18060700606369821258
10354089 29 18131350808971905224
10613725 11 9943807785407013026
106641 1 18411701027561805746
10730089 173 10807943648117448899
11315181 36 12829495835182617007
12516196 113 16225765220629776676
12596602 18 18335420132163007592
12670543 26 8430320129789335781
12916748 109 17131838646955735376
13177829 20 18408323319435992064
13288520 33 13839986612539268935
13533116 47 16950276270639365346
13668630 136 15502096353809565395
13964095 4 8430320138627372163
1420 363 17749108885578273866
14251764 18 18272090521782675903
14341114 176 17988647371982025062
14848160 23 14634868648113926216
14933364 13 17775286071544998288
15048467 5 16487256568862638915
15183329 4 9223237351434289556
15690457 1 17603585261931059995
15706992 2 13757809144135438627
15716309 27 18187082857954196258
17834072 8 10809342252276408575
17870717 6 11169916056781888361
18222031 100 15574719063166214030
200 152 15647050452045766484
20281389 69 17561081397796045752
20374829 77 11458425738988606814
20735858 18 18334857220743335810
21095086 128 18113902637840329946
21637258 2 16588021329254273263
2215653 11 12468638335165372028
22224240 67 17917990594465792015
23035841 295 17603866710599636651
23198884 109 10952050052636530847
23402539 116 16878221987151011693
23559900 14 11819290991379883007
29717793 49 11674881078669634410
3004659 81 7925911491942155438
3009799 131 12179846112793098174
328311 84 17704079460873713558
351380 3 17095238116485138090
3545911 37 17203611479813128862
5104073 3 18057898943890513195
59682541 35 18131069385355798731
59755656 520 14045739314272051861

>  <PUBCHEM_SHAPE_MULTIPOLES>
348.38
19.29
1.25
1.06
14.74
0.22
0.04
-3.14
8.13
-1.04
-0.09
0.47
0.04
0.14

>  <PUBCHEM_SHAPE_SELFOVERLAP>
706.075

>  <PUBCHEM_SHAPE_VOLUME>
203.6

>  <PUBCHEM_COORDINATE_TYPE>
2
5
10

$$$$
