116317298
 OpenBabel01182520543D

 26 26  0  0  0  0  0  0  0  0999 V2000
    3.5915    1.5412    0.3951 F   0  0  0  0  0  0  0  0  0  0  0  0
    3.2803    0.3380   -1.3967 F   0  0  0  0  0  0  0  0  0  0  0  0
    0.8992   -1.5520   -1.2120 O   0  0  0  0  0  0  0  0  0  0  0  0
    1.4972   -0.3378    0.6938 N   0  0  0  0  0  0  0  0  0  0  0  0
   -3.0346   -0.7865    0.6385 N   0  0  0  0  0  0  0  0  0  0  0  0
   -4.7833    0.7328    0.0812 N   0  0  0  0  0  0  0  0  0  0  0  0
    2.9148   -0.6930    0.6862 C   0  0  0  0  0  0  0  0  0  0  0  0
    0.6058   -0.8102   -0.2751 C   0  0  0  0  0  0  0  0  0  0  0  0
   -0.8011   -0.3862   -0.1961 C   0  0  0  0  0  0  0  0  0  0  0  0
    1.0731    0.5397    1.7757 C   0  0  0  0  0  0  0  0  0  0  0  0
    3.7292    0.2944   -0.1184 C   0  0  0  0  0  0  0  0  0  0  0  0
   -1.2410    0.7633   -0.8433 C   0  0  0  0  0  0  0  0  0  0  0  0
   -1.7291   -1.1196    0.5253 C   0  0  0  0  0  0  0  0  0  0  0  0
   -2.5767    1.1388   -0.7502 C   0  0  0  0  0  0  0  0  0  0  0  0
   -3.4253    0.3371   -0.0040 C   0  0  0  0  0  0  0  0  0  0  0  0
    3.2724   -0.7469    1.7196 H   0  0  0  0  0  0  0  0  0  0  0  0
    3.0128   -1.6857    0.2340 H   0  0  0  0  0  0  0  0  0  0  0  0
    1.3095    0.0549    2.7283 H   0  0  0  0  0  0  0  0  0  0  0  0
    0.0087    0.7726    1.7744 H   0  0  0  0  0  0  0  0  0  0  0  0
    1.6237    1.4818    1.7095 H   0  0  0  0  0  0  0  0  0  0  0  0
    4.7910    0.0345   -0.1290 H   0  0  0  0  0  0  0  0  0  0  0  0
   -0.5512    1.3723   -1.4213 H   0  0  0  0  0  0  0  0  0  0  0  0
   -1.4451   -2.0257    1.0519 H   0  0  0  0  0  0  0  0  0  0  0  0
   -2.9271    2.0343   -1.2529 H   0  0  0  0  0  0  0  0  0  0  0  0
   -5.0041    1.7177    0.0000 H   0  0  0  0  0  0  0  0  0  0  0  0
   -5.3985    0.1474    0.6326 H   0  0  0  0  0  0  0  0  0  0  0  0
  1 11  1  0  0  0  0
  2 11  1  0  0  0  0
  3  8  2  0  0  0  0
  4  7  1  0  0  0  0
  4  8  1  0  0  0  0
  4 10  1  0  0  0  0
  5 13  1  0  0  0  0
  5 15  2  0  0  0  0
  6 15  1  0  0  0  0
  6 25  1  0  0  0  0
  6 26  1  0  0  0  0
  7 11  1  0  0  0  0
  7 16  1  0  0  0  0
  7 17  1  0  0  0  0
  8  9  1  0  0  0  0
  9 12  1  0  0  0  0
  9 13  2  0  0  0  0
 10 18  1  0  0  0  0
 10 19  1  0  0  0  0
 10 20  1  0  0  0  0
 11 21  1  0  0  0  0
 12 14  2  0  0  0  0
 12 22  1  0  0  0  0
 13 23  1  0  0  0  0
 14 15  1  0  0  0  0
 14 24  1  0  0  0  0
M  END
>  <PUBCHEM_COMPOUND_CID>
116317298

>  <PUBCHEM_CONFORMER_RMSD>
0.6

>  <PUBCHEM_CONFORMER_DIVERSEORDER>
2
48
15
25
31
53
47
19
60
14
34
22
35
26
40
29
23
58
57
41
20
52
10
28
42
46
21
11
16
30
33
39
27
32
18
13
37
45
7
55
51
17
1
24
38
49
4
50
36
44
43
3
56
6
54
5
9
59
12
8

>  <PUBCHEM_MMFF94_PARTIAL_CHARGES>
20
1 -0.34
10 0.3
11 0.68
12 -0.15
13 0.16
14 -0.15
15 0.41
2 -0.34
22 0.15
23 0.15
24 0.15
25 0.4
26 0.4
3 -0.57
4 -0.66
5 -0.62
6 -0.9
7 0.3
8 0.54
9 0.09

>  <PUBCHEM_EFFECTIVE_ROTOR_COUNT>
4

>  <PUBCHEM_PHARMACOPHORE_FEATURES>
4
1 3 acceptor
1 6 donor
3 5 6 15 cation
6 5 9 12 13 14 15 rings

>  <PUBCHEM_HEAVY_ATOM_COUNT>
15

>  <PUBCHEM_ATOM_DEF_STEREO_COUNT>
0

>  <PUBCHEM_ATOM_UDEF_STEREO_COUNT>
0

>  <PUBCHEM_BOND_DEF_STEREO_COUNT>
0

>  <PUBCHEM_BOND_UDEF_STEREO_COUNT>
0

>  <PUBCHEM_ISOTOPIC_ATOM_COUNT>
0

>  <PUBCHEM_COMPONENT_COUNT>
1

>  <PUBCHEM_CACTVS_TAUTO_COUNT>
5

>  <PUBCHEM_CONFORMER_ID>
06EEDC7200000002

>  <PUBCHEM_MMFF94_ENERGY>
45.1268

>  <PUBCHEM_FEATURE_SELFOVERLAP>
20.297

>  <PUBCHEM_SHAPE_FINGERPRINT>
11031198 65 17989202612152769071
11132069 177 17749103409057069685
12251169 10 17530683207975046230
12932764 1 18200861946274066659
13296908 3 11097844182009174394
13675066 3 16153710878077270235
14252887 29 13695868082414503952
14289901 80 17458063763579850792
14350558 41 10519991495324754160
14993402 34 15339119035200867161
15219456 202 18339364067397572207
15775835 57 18130498712708066638
16945 1 17346590859545441675
18175812 5 18410572902856758871
18186145 218 17846504750879557172
19050596 39 17385722517095836336
200 152 13551190000757767683
20233049 118 18201432567503244200
20510252 161 18115584838663951773
20528008 55 18113332007778059951
20711983 171 18260265265594020318
22485316 2 8718536220974805497
23402539 116 18187635908635715567
23557571 272 18190197821719655047
23559900 14 18041562434163118870
25 1 17775282750849723026
2748010 2 17129280220283180802
3060560 45 16415470528395241876
4990 188 16774079570151773309
7364860 26 17970340430312948122
74978 22 16056306349367813674
81228 2 17481678159530730022
93112 12 13470397898637557568

>  <PUBCHEM_SHAPE_MULTIPOLES>
273.33
7.3
1.28
1.19
1.09
0.09
-0.11
2.05
-0.77
0.11
0.08
-0.77
-0.07
0.14

>  <PUBCHEM_SHAPE_SELFOVERLAP>
563.493

>  <PUBCHEM_SHAPE_VOLUME>
157.6

>  <PUBCHEM_COORDINATE_TYPE>
2
5
10

$$$$
