11636833
 OpenBabel01182520543D

 19 19  0  0  0  0  0  0  0  0999 V2000
    3.0702   -1.2696   -0.0020 O   0  0  0  0  0  0  0  0  0  0  0  0
   -0.8874    1.3915   -0.0170 N   0  0  0  0  0  0  0  0  0  0  0  0
   -3.0570    0.4088   -0.0779 N   0  0  0  0  0  0  0  0  0  0  0  0
    3.2615    1.0148    0.0597 N   0  0  0  0  0  0  0  0  0  0  0  0
   -3.8845   -0.6575    0.1673 N   0  0  0  0  0  0  0  0  0  0  0  0
    1.0641   -0.0355   -0.0032 C   0  0  0  0  0  0  0  0  0  0  0  0
   -1.6467    0.2735   -0.0523 C   0  0  0  0  0  0  0  0  0  0  0  0
    0.2496   -1.1620   -0.0399 C   0  0  0  0  0  0  0  0  0  0  0  0
   -1.1327   -1.0133   -0.0649 C   0  0  0  0  0  0  0  0  0  0  0  0
    0.4518    1.2074    0.0067 C   0  0  0  0  0  0  0  0  0  0  0  0
    2.5110   -0.1579    0.0235 C   0  0  0  0  0  0  0  0  0  0  0  0
    0.6707   -2.1636   -0.0513 H   0  0  0  0  0  0  0  0  0  0  0  0
   -1.7461   -1.9070   -0.1027 H   0  0  0  0  0  0  0  0  0  0  0  0
    0.9879    2.1476    0.0338 H   0  0  0  0  0  0  0  0  0  0  0  0
   -3.4325    1.3485   -0.0336 H   0  0  0  0  0  0  0  0  0  0  0  0
    2.8853    1.9542    0.0775 H   0  0  0  0  0  0  0  0  0  0  0  0
    4.2751    0.9584    0.0721 H   0  0  0  0  0  0  0  0  0  0  0  0
   -4.7793   -0.4870   -0.2893 H   0  0  0  0  0  0  0  0  0  0  0  0
   -4.0818   -0.6953    1.1666 H   0  0  0  0  0  0  0  0  0  0  0  0
  1 11  2  0  0  0  0
  2  7  2  0  0  0  0
  2 10  1  0  0  0  0
  3  5  1  0  0  0  0
  3  7  1  0  0  0  0
  3 15  1  0  0  0  0
  4 11  1  0  0  0  0
  4 16  1  0  0  0  0
  4 17  1  0  0  0  0
  5 18  1  0  0  0  0
  5 19  1  0  0  0  0
  6  8  1  0  0  0  0
  6 10  2  0  0  0  0
  6 11  1  0  0  0  0
  7  9  1  0  0  0  0
  8  9  2  0  0  0  0
  8 12  1  0  0  0  0
  9 13  1  0  0  0  0
 10 14  1  0  0  0  0
M  END
>  <PUBCHEM_COMPOUND_CID>
11636833

>  <PUBCHEM_CONFORMER_RMSD>
0.4

>  <PUBCHEM_CONFORMER_DIVERSEORDER>
1
2
3
4

>  <PUBCHEM_MMFF94_PARTIAL_CHARGES>
19
1 -0.57
10 0.16
11 0.54
12 0.15
13 0.15
14 0.15
15 0.4
16 0.37
17 0.37
18 0.36
19 0.36
2 -0.62
3 -0.51
4 -0.8
5 -0.71
6 0.09
7 0.41
8 -0.15
9 -0.15

>  <PUBCHEM_EFFECTIVE_ROTOR_COUNT>
2

>  <PUBCHEM_PHARMACOPHORE_FEATURES>
6
1 1 acceptor
1 3 donor
1 4 donor
1 5 donor
3 2 3 7 cation
6 2 6 7 8 9 10 rings

>  <PUBCHEM_HEAVY_ATOM_COUNT>
11

>  <PUBCHEM_ATOM_DEF_STEREO_COUNT>
0

>  <PUBCHEM_ATOM_UDEF_STEREO_COUNT>
0

>  <PUBCHEM_BOND_DEF_STEREO_COUNT>
0

>  <PUBCHEM_BOND_UDEF_STEREO_COUNT>
0

>  <PUBCHEM_ISOTOPIC_ATOM_COUNT>
0

>  <PUBCHEM_COMPONENT_COUNT>
1

>  <PUBCHEM_CACTVS_TAUTO_COUNT>
7

>  <PUBCHEM_CONFORMER_ID>
00B1906100000001

>  <PUBCHEM_MMFF94_ENERGY>
36.1779

>  <PUBCHEM_FEATURE_SELFOVERLAP>
31.991

>  <PUBCHEM_SHAPE_FINGERPRINT>
10219947 1 18413673512978404559
10857977 72 18409721872440921113
11062470 55 10447928369252917291
12032990 46 18410299094549801639
12932764 1 16988551399134737640
14325111 11 18410573968050833165
16945 1 18340476824667214900
193761 8 17618222149191685199
23235685 24 18411412929750864165
23402655 69 18195789797142897221
23463225 33 18337390444173290270
23552423 10 18261111863930571830
2748010 2 18122906696423769270
369184 2 18411697673382231904
5084963 1 18270961237346671600

>  <PUBCHEM_SHAPE_MULTIPOLES>
200.58
5.25
1.37
0.58
1.17
0.05
0
-0.49
-0.2
-0.3
0.01
0
-0.01
0.05

>  <PUBCHEM_SHAPE_SELFOVERLAP>
417.878

>  <PUBCHEM_SHAPE_VOLUME>
112.5

>  <PUBCHEM_COORDINATE_TYPE>
2
5
10

$$$$
