116317286
 OpenBabel01182520543D

 26 26  0  0  0  0  0  0  0  0999 V2000
    3.3529   -0.7787   -1.2107 F   0  0  0  0  0  0  0  0  0  0  0  0
    2.9618   -1.0042    0.9226 F   0  0  0  0  0  0  0  0  0  0  0  0
    0.5250    0.5409    1.8974 O   0  0  0  0  0  0  0  0  0  0  0  0
    1.2055    0.8341   -0.3195 N   0  0  0  0  0  0  0  0  0  0  0  0
   -2.8353   -1.3001   -0.3172 N   0  0  0  0  0  0  0  0  0  0  0  0
   -0.6448   -2.0773    0.1497 N   0  0  0  0  0  0  0  0  0  0  0  0
    2.6102    1.1170   -0.0321 C   0  0  0  0  0  0  0  0  0  0  0  0
    0.2774    0.5675    0.6924 C   0  0  0  0  0  0  0  0  0  0  0  0
   -1.1128    0.2775    0.3066 C   0  0  0  0  0  0  0  0  0  0  0  0
    0.8351    0.8478   -1.7277 C   0  0  0  0  0  0  0  0  0  0  0  0
    3.4379   -0.1479   -0.0141 C   0  0  0  0  0  0  0  0  0  0  0  0
   -1.5657   -1.0049    0.0418 C   0  0  0  0  0  0  0  0  0  0  0  0
   -2.0212    1.3244    0.1960 C   0  0  0  0  0  0  0  0  0  0  0  0
   -3.3362    1.0606   -0.1709 C   0  0  0  0  0  0  0  0  0  0  0  0
   -3.6897   -0.2568   -0.4144 C   0  0  0  0  0  0  0  0  0  0  0  0
    2.9892    1.8236   -0.7777 H   0  0  0  0  0  0  0  0  0  0  0  0
    2.6654    1.5915    0.9535 H   0  0  0  0  0  0  0  0  0  0  0  0
    1.0701    1.8350   -2.1381 H   0  0  0  0  0  0  0  0  0  0  0  0
   -0.2192    0.6489   -1.9173 H   0  0  0  0  0  0  0  0  0  0  0  0
    1.4202    0.0928   -2.2593 H   0  0  0  0  0  0  0  0  0  0  0  0
    4.4902    0.0562    0.2010 H   0  0  0  0  0  0  0  0  0  0  0  0
   -1.7160    2.3488    0.3922 H   0  0  0  0  0  0  0  0  0  0  0  0
   -4.0614    1.8609   -0.2636 H   0  0  0  0  0  0  0  0  0  0  0  0
   -4.7030   -0.5155   -0.7036 H   0  0  0  0  0  0  0  0  0  0  0  0
    0.3309   -1.9000   -0.0547 H   0  0  0  0  0  0  0  0  0  0  0  0
   -1.0048   -3.0034   -0.0466 H   0  0  0  0  0  0  0  0  0  0  0  0
  1 11  1  0  0  0  0
  2 11  1  0  0  0  0
  3  8  2  0  0  0  0
  4  7  1  0  0  0  0
  4  8  1  0  0  0  0
  4 10  1  0  0  0  0
  5 12  1  0  0  0  0
  5 15  2  0  0  0  0
  6 12  1  0  0  0  0
  6 25  1  0  0  0  0
  6 26  1  0  0  0  0
  7 11  1  0  0  0  0
  7 16  1  0  0  0  0
  7 17  1  0  0  0  0
  8  9  1  0  0  0  0
  9 12  2  0  0  0  0
  9 13  1  0  0  0  0
 10 18  1  0  0  0  0
 10 19  1  0  0  0  0
 10 20  1  0  0  0  0
 11 21  1  0  0  0  0
 13 14  2  0  0  0  0
 13 22  1  0  0  0  0
 14 15  1  0  0  0  0
 14 23  1  0  0  0  0
 15 24  1  0  0  0  0
M  END
>  <PUBCHEM_COMPOUND_CID>
116317286

>  <PUBCHEM_CONFORMER_RMSD>
0.6

>  <PUBCHEM_CONFORMER_DIVERSEORDER>
1
46
45
43
61
56
6
49
34
23
44
19
59
52
48
62
21
14
10
36
40
25
7
26
57
33
63
47
11
50
42
4
18
37
38
5
51
27
3
53
22
13
30
65
54
60
58
20
55
35
12
16
32
28
39
8
9
17
24
64
29
15
41
31
2

>  <PUBCHEM_MMFF94_PARTIAL_CHARGES>
20
1 -0.34
10 0.3
11 0.68
12 0.41
13 -0.15
14 -0.15
15 0.16
2 -0.34
22 0.15
23 0.15
24 0.15
25 0.4
26 0.4
3 -0.57
4 -0.66
5 -0.62
6 -0.9
7 0.3
8 0.54
9 0.09

>  <PUBCHEM_EFFECTIVE_ROTOR_COUNT>
4

>  <PUBCHEM_PHARMACOPHORE_FEATURES>
5
1 3 acceptor
1 5 acceptor
1 6 cation
1 6 donor
6 5 9 12 13 14 15 rings

>  <PUBCHEM_HEAVY_ATOM_COUNT>
15

>  <PUBCHEM_ATOM_DEF_STEREO_COUNT>
0

>  <PUBCHEM_ATOM_UDEF_STEREO_COUNT>
0

>  <PUBCHEM_BOND_DEF_STEREO_COUNT>
0

>  <PUBCHEM_BOND_UDEF_STEREO_COUNT>
0

>  <PUBCHEM_ISOTOPIC_ATOM_COUNT>
0

>  <PUBCHEM_COMPONENT_COUNT>
1

>  <PUBCHEM_CACTVS_TAUTO_COUNT>
5

>  <PUBCHEM_CONFORMER_ID>
06EEDC6600000001

>  <PUBCHEM_MMFF94_ENERGY>
46.0647

>  <PUBCHEM_FEATURE_SELFOVERLAP>
25.372

>  <PUBCHEM_SHAPE_FINGERPRINT>
10062212 137 18341038628265756003
10353120 184 16225764095121745068
10465860 250 17774995770014992264
10922523 26 18408044008990903909
11031198 65 14924212829122582105
11769659 78 18410848880285847534
124424 183 17775563126436190149
12592029 89 18188779336087887003
12716758 59 18412260679260029025
13296908 3 17275108318763054260
13571099 22 18059860536699875862
13581323 91 18410858788996965045
14144814 61 18333167267060301784
14325111 11 18410291423727622521
14993402 34 17967811643678382701
15207287 21 17418372510624646423
15219456 202 17702654596260890673
15775835 57 18040999522573869709
16945 1 18340208470815626049
18186145 218 18412827958234756713
20201158 50 17775573034777893334
20645476 183 17895202141895464247
20653085 51 17676496089523427293
207724 885 17821727234540492165
22802520 49 18269276944478383339
23402539 116 18201993301206340613
23463225 33 18261669277228043530
23559900 14 18130785642894552024
296302 2 16559031601265449417
57812782 119 17988921167251391917
7364860 26 18197216073270249192
74978 22 17749962170588035772
76465 3 17417797491997895735
77492 1 17749380477587394721
9709674 26 18342461499264621998

>  <PUBCHEM_SHAPE_MULTIPOLES>
273.33
6.02
1.52
1.18
0.85
0.45
0
0.44
0.9
-0.42
0.05
0.61
-0.19
-0.19

>  <PUBCHEM_SHAPE_SELFOVERLAP>
564.666

>  <PUBCHEM_SHAPE_VOLUME>
157

>  <PUBCHEM_COORDINATE_TYPE>
2
5
10

$$$$
