116317283
 OpenBabel01182520543D

 29 29  0  0  0  0  0  0  0  0999 V2000
    3.7716   -1.6471   -0.6976 F   0  0  0  0  0  0  0  0  0  0  0  0
    3.5139   -0.8393    1.3114 F   0  0  0  0  0  0  0  0  0  0  0  0
    1.3359    1.2797    1.5162 O   0  0  0  0  0  0  0  0  0  0  0  0
    1.8821    0.4569   -0.6025 N   0  0  0  0  0  0  0  0  0  0  0  0
   -2.3140   -0.9553    0.4654 N   0  0  0  0  0  0  0  0  0  0  0  0
   -4.4705   -0.2442   -0.2560 N   0  0  0  0  0  0  0  0  0  0  0  0
    3.3262    0.6542   -0.4965 C   0  0  0  0  0  0  0  0  0  0  0  0
    1.0061    0.7950    0.4343 C   0  0  0  0  0  0  0  0  0  0  0  0
   -0.4316    0.5454    0.2438 C   0  0  0  0  0  0  0  0  0  0  0  0
    1.4142   -0.1144   -1.8575 C   0  0  0  0  0  0  0  0  0  0  0  0
    4.0110   -0.5636    0.0809 C   0  0  0  0  0  0  0  0  0  0  0  0
   -1.2598    1.5140   -0.3124 C   0  0  0  0  0  0  0  0  0  0  0  0
   -1.0025   -0.6618    0.6128 C   0  0  0  0  0  0  0  0  0  0  0  0
   -3.0879    0.0104   -0.0787 C   0  0  0  0  0  0  0  0  0  0  0  0
   -2.6146    1.2493   -0.4801 C   0  0  0  0  0  0  0  0  0  0  0  0
   -5.0801   -1.4791    0.1164 C   0  0  0  0  0  0  0  0  0  0  0  0
    3.7246    0.8957   -1.4873 H   0  0  0  0  0  0  0  0  0  0  0  0
    3.5037    1.5086    0.1655 H   0  0  0  0  0  0  0  0  0  0  0  0
    1.7228    0.5455   -2.6746 H   0  0  0  0  0  0  0  0  0  0  0  0
    0.3337   -0.2403   -1.9190 H   0  0  0  0  0  0  0  0  0  0  0  0
    1.8755   -1.0953   -1.9990 H   0  0  0  0  0  0  0  0  0  0  0  0
    5.0920   -0.4230    0.1637 H   0  0  0  0  0  0  0  0  0  0  0  0
   -0.8592    2.4767   -0.6181 H   0  0  0  0  0  0  0  0  0  0  0  0
   -0.4065   -1.4563    1.0516 H   0  0  0  0  0  0  0  0  0  0  0  0
   -3.2660    2.0014   -0.9131 H   0  0  0  0  0  0  0  0  0  0  0  0
   -4.9824    0.3856   -0.8643 H   0  0  0  0  0  0  0  0  0  0  0  0
   -4.9693   -1.6687    1.1891 H   0  0  0  0  0  0  0  0  0  0  0  0
   -4.6485   -2.3182   -0.4389 H   0  0  0  0  0  0  0  0  0  0  0  0
   -6.1513   -1.4483   -0.1058 H   0  0  0  0  0  0  0  0  0  0  0  0
  1 11  1  0  0  0  0
  2 11  1  0  0  0  0
  3  8  2  0  0  0  0
  4  7  1  0  0  0  0
  4  8  1  0  0  0  0
  4 10  1  0  0  0  0
  5 13  1  0  0  0  0
  5 14  2  0  0  0  0
  6 14  1  0  0  0  0
  6 16  1  0  0  0  0
  6 26  1  0  0  0  0
  7 11  1  0  0  0  0
  7 17  1  0  0  0  0
  7 18  1  0  0  0  0
  8  9  1  0  0  0  0
  9 12  1  0  0  0  0
  9 13  2  0  0  0  0
 10 19  1  0  0  0  0
 10 20  1  0  0  0  0
 10 21  1  0  0  0  0
 11 22  1  0  0  0  0
 12 15  2  0  0  0  0
 12 23  1  0  0  0  0
 13 24  1  0  0  0  0
 14 15  1  0  0  0  0
 15 25  1  0  0  0  0
 16 27  1  0  0  0  0
 16 28  1  0  0  0  0
 16 29  1  0  0  0  0
M  END
>  <PUBCHEM_COMPOUND_CID>
116317283

>  <PUBCHEM_CONFORMER_RMSD>
0.6

>  <PUBCHEM_CONFORMER_DIVERSEORDER>
1
66
54
65
53
134
99
122
42
111
81
128
121
45
68
103
115
10
123
132
47
72
75
116
58
82
27
76
112
83
127
64
133
24
92
110
78
107
22
37
33
94
109
106
30
67
35
36
57
93
88
89
114
117
102
52
55
80
62
18
77
108
135
130
43
120
100
95
51
85
74
23
29
56
26
79
73
86
13
49
41
124
46
34
125
129
31
19
118
28
113
91
38
59
131
16
71
101
6
60
97
12
70
105
9
32
50
90
119
40
98
104
14
69
25
8
87
84
48
63
15
39
126
11
5
44
61
20
2
21
3
4
96
7
17

>  <PUBCHEM_MMFF94_PARTIAL_CHARGES>
20
1 -0.34
10 0.3
11 0.68
12 -0.15
13 0.16
14 0.41
15 -0.15
16 0.37
2 -0.34
23 0.15
24 0.15
25 0.15
26 0.4
3 -0.57
4 -0.66
5 -0.62
6 -0.87
7 0.3
8 0.54
9 0.09

>  <PUBCHEM_EFFECTIVE_ROTOR_COUNT>
5

>  <PUBCHEM_PHARMACOPHORE_FEATURES>
4
1 3 acceptor
1 6 donor
3 5 6 14 cation
6 5 9 12 13 14 15 rings

>  <PUBCHEM_HEAVY_ATOM_COUNT>
16

>  <PUBCHEM_ATOM_DEF_STEREO_COUNT>
0

>  <PUBCHEM_ATOM_UDEF_STEREO_COUNT>
0

>  <PUBCHEM_BOND_DEF_STEREO_COUNT>
0

>  <PUBCHEM_BOND_UDEF_STEREO_COUNT>
0

>  <PUBCHEM_ISOTOPIC_ATOM_COUNT>
0

>  <PUBCHEM_COMPONENT_COUNT>
1

>  <PUBCHEM_CACTVS_TAUTO_COUNT>
5

>  <PUBCHEM_CONFORMER_ID>
06EEDC6300000001

>  <PUBCHEM_MMFF94_ENERGY>
49.1232

>  <PUBCHEM_FEATURE_SELFOVERLAP>
20.297

>  <PUBCHEM_SHAPE_FINGERPRINT>
10465860 250 18271799082598104248
11132069 177 11455883646435186202
11471102 20 13551467068718276428
11796584 16 18335980896184218611
12032990 46 18336265743063203905
13288520 33 18408605829341539446
13581323 91 18410854360648293148
13675066 3 14692580922492055773
13690532 89 18040996250156800269
14115302 16 17749397008990279007
14252887 29 16773807982247806830
14993402 34 16442782427467983197
15207287 21 18202848755195575542
18186145 218 15357706309270096068
19862831 5 16370445565987406961
200 152 18060138730205560197
20281475 54 18271815604867663328
20645476 183 16371004148423513819
20645477 70 18335423478174840550
21119208 17 16732701666454499181
22485316 2 18341894125415381109
23402539 116 18334289851584909477
23402655 69 13623515875622362407
23559900 14 18334856164582262060
3060560 45 15430029985221990882
3286 77 18059855090744946857
465052 167 18201726201395408079
474 4 16299526052842964556
4990 188 17822008718154746635
7364860 26 18262521536532438524
76465 3 18272923947233322671
81228 2 17343524218805859464
9709674 26 18334584516285113314
9981440 41 16232267947230108116

>  <PUBCHEM_SHAPE_MULTIPOLES>
293.91
8.65
1.45
1.15
3.21
0.05
-0.13
4.17
-0.53
0.33
0.04
-0.91
-0.05
0.22

>  <PUBCHEM_SHAPE_SELFOVERLAP>
601.22

>  <PUBCHEM_SHAPE_VOLUME>
170.8

>  <PUBCHEM_COORDINATE_TYPE>
2
5
10

$$$$
