11776846
 OpenBabel01182520543D

 41 41  0  0  0  0  0  0  0  0999 V2000
    2.5924   -1.3115   -1.5510 O   0  0  0  0  0  0  0  0  0  0  0  0
   -3.2728    0.0257    0.1069 N   0  0  0  0  0  0  0  0  0  0  0  0
    3.1058    0.2154    0.1429 N   0  0  0  0  0  0  0  0  0  0  0  0
   -1.2636    0.7182   -0.9701 N   0  0  0  0  0  0  0  0  0  0  0  0
   -3.9611   -0.8421    1.0365 C   0  0  0  0  0  0  0  0  0  0  0  0
   -4.0155    1.0415   -0.6060 C   0  0  0  0  0  0  0  0  0  0  0  0
   -1.8768   -0.1092   -0.0943 C   0  0  0  0  0  0  0  0  0  0  0  0
    4.5447    0.0928   -0.0439 C   0  0  0  0  0  0  0  0  0  0  0  0
    2.6804    1.1399    1.1917 C   0  0  0  0  0  0  0  0  0  0  0  0
    0.7937   -0.4034   -0.4456 C   0  0  0  0  0  0  0  0  0  0  0  0
    2.2431   -0.5321   -0.6653 C   0  0  0  0  0  0  0  0  0  0  0  0
   -1.2239   -1.0933    0.6303 C   0  0  0  0  0  0  0  0  0  0  0  0
    0.1466   -1.2376    0.4441 C   0  0  0  0  0  0  0  0  0  0  0  0
    0.0687    0.5483   -1.1248 C   0  0  0  0  0  0  0  0  0  0  0  0
   -4.2838   -2.1825    0.4093 C   0  0  0  0  0  0  0  0  0  0  0  0
   -3.8909    2.3937    0.0652 C   0  0  0  0  0  0  0  0  0  0  0  0
    5.1252   -1.0054    0.8229 C   0  0  0  0  0  0  0  0  0  0  0  0
    2.4878    2.5417    0.6511 C   0  0  0  0  0  0  0  0  0  0  0  0
   -3.4383   -0.9488    1.9938 H   0  0  0  0  0  0  0  0  0  0  0  0
   -4.9156   -0.3778    1.3201 H   0  0  0  0  0  0  0  0  0  0  0  0
   -3.6920    1.1083   -1.6521 H   0  0  0  0  0  0  0  0  0  0  0  0
   -5.0776    0.7694   -0.6509 H   0  0  0  0  0  0  0  0  0  0  0  0
    4.7491   -0.1406   -1.0950 H   0  0  0  0  0  0  0  0  0  0  0  0
    5.0255    1.0530    0.1726 H   0  0  0  0  0  0  0  0  0  0  0  0
    1.7431    0.7944    1.6366 H   0  0  0  0  0  0  0  0  0  0  0  0
    3.4264    1.1402    1.9943 H   0  0  0  0  0  0  0  0  0  0  0  0
   -1.6855   -1.7686    1.3381 H   0  0  0  0  0  0  0  0  0  0  0  0
    0.6897   -1.9990    0.9965 H   0  0  0  0  0  0  0  0  0  0  0  0
    0.5328    1.2203   -1.8392 H   0  0  0  0  0  0  0  0  0  0  0  0
   -4.9052   -2.0539   -0.4840 H   0  0  0  0  0  0  0  0  0  0  0  0
   -3.3924   -2.7392    0.1075 H   0  0  0  0  0  0  0  0  0  0  0  0
   -4.8417   -2.8046    1.1168 H   0  0  0  0  0  0  0  0  0  0  0  0
   -4.2474    2.3528    1.1000 H   0  0  0  0  0  0  0  0  0  0  0  0
   -2.8540    2.7437    0.0849 H   0  0  0  0  0  0  0  0  0  0  0  0
   -4.4873    3.1395   -0.4696 H   0  0  0  0  0  0  0  0  0  0  0  0
    4.9585   -0.8030    1.8859 H   0  0  0  0  0  0  0  0  0  0  0  0
    4.6675   -1.9735    0.5938 H   0  0  0  0  0  0  0  0  0  0  0  0
    6.2037   -1.0909    0.6581 H   0  0  0  0  0  0  0  0  0  0  0  0
    3.4218    2.9363    0.2377 H   0  0  0  0  0  0  0  0  0  0  0  0
    1.7380    2.5792   -0.1423 H   0  0  0  0  0  0  0  0  0  0  0  0
    2.1645    3.2141    1.4521 H   0  0  0  0  0  0  0  0  0  0  0  0
  1 11  2  0  0  0  0
  2  5  1  0  0  0  0
  2  6  1  0  0  0  0
  2  7  1  0  0  0  0
  3  8  1  0  0  0  0
  3  9  1  0  0  0  0
  3 11  1  0  0  0  0
  4  7  2  0  0  0  0
  4 14  1  0  0  0  0
  5 15  1  0  0  0  0
  5 19  1  0  0  0  0
  5 20  1  0  0  0  0
  6 16  1  0  0  0  0
  6 21  1  0  0  0  0
  6 22  1  0  0  0  0
  7 12  1  0  0  0  0
  8 17  1  0  0  0  0
  8 23  1  0  0  0  0
  8 24  1  0  0  0  0
  9 18  1  0  0  0  0
  9 25  1  0  0  0  0
  9 26  1  0  0  0  0
 10 11  1  0  0  0  0
 10 13  1  0  0  0  0
 10 14  2  0  0  0  0
 12 13  2  0  0  0  0
 12 27  1  0  0  0  0
 13 28  1  0  0  0  0
 14 29  1  0  0  0  0
 15 30  1  0  0  0  0
 15 31  1  0  0  0  0
 15 32  1  0  0  0  0
 16 33  1  0  0  0  0
 16 34  1  0  0  0  0
 16 35  1  0  0  0  0
 17 36  1  0  0  0  0
 17 37  1  0  0  0  0
 17 38  1  0  0  0  0
 18 39  1  0  0  0  0
 18 40  1  0  0  0  0
 18 41  1  0  0  0  0
M  END
>  <PUBCHEM_COMPOUND_CID>
11776846

>  <PUBCHEM_CONFORMER_RMSD>
0.8

>  <PUBCHEM_CONFORMER_DIVERSEORDER>
1
23
25
34
5
20
24
12
27
33
13
28
3
35
16
31
11
19
17
32
29
30
21
22
9
4
36
14
6
10
8
7
15
2
26
18

>  <PUBCHEM_MMFF94_PARTIAL_CHARGES>
17
1 -0.57
10 0.09
11 0.54
12 -0.15
13 -0.15
14 0.16
2 -0.84
27 0.15
28 0.15
29 0.15
3 -0.66
4 -0.62
5 0.37
6 0.37
7 0.41
8 0.3
9 0.3

>  <PUBCHEM_EFFECTIVE_ROTOR_COUNT>
7

>  <PUBCHEM_PHARMACOPHORE_FEATURES>
3
1 1 acceptor
3 2 4 7 cation
6 4 7 10 12 13 14 rings

>  <PUBCHEM_HEAVY_ATOM_COUNT>
18

>  <PUBCHEM_ATOM_DEF_STEREO_COUNT>
0

>  <PUBCHEM_ATOM_UDEF_STEREO_COUNT>
0

>  <PUBCHEM_BOND_DEF_STEREO_COUNT>
0

>  <PUBCHEM_BOND_UDEF_STEREO_COUNT>
0

>  <PUBCHEM_ISOTOPIC_ATOM_COUNT>
0

>  <PUBCHEM_COMPONENT_COUNT>
1

>  <PUBCHEM_CACTVS_TAUTO_COUNT>
1

>  <PUBCHEM_CONFORMER_ID>
00B3B34E00000001

>  <PUBCHEM_MMFF94_ENERGY>
51.3807

>  <PUBCHEM_FEATURE_SELFOVERLAP>
15.223

>  <PUBCHEM_SHAPE_FINGERPRINT>
10608611 8 18413107277412106953
10646746 165 18409728447972774945
11132069 177 17967819297558004679
11405975 8 18411702067265716337
11543360 7 17489290989510685525
11545043 162 18260829301910202905
12119455 92 18202557359055251806
12236239 1 16226049985208609343
12293681 4 18270962332294891697
12403259 226 18338230595837959089
12500047 106 18334573487167390589
12507557 5 18202280307710291776
12507560 40 18338794627970047808
13214271 11 18410853248663135911
13583140 156 18131067134666179015
13675066 3 18059850675528940752
13760787 5 15195289681419817575
14178342 30 18113905923057392027
14289901 80 17989486350988824555
15209294 21 18261111816548833521
16752209 62 16009294474885688303
17349148 13 17168140187093337659
17804303 29 18260267447474147998
18186145 218 17917724482391647223
18222031 100 17241320403782745959
18785283 64 18267862968689584168
19026448 4 18202009798043537503
20645477 56 18336831901526169161
20645477 70 17345756257189828567
21618674 57 18261950752658272768
21637258 2 16660628649843379858
23402539 116 18260542325059585750
23557571 272 18411704305244279731
23559900 14 18338242544537177654
3286 77 18408602599721441452
351380 180 18342450426612046905
42 15 17749106665138340626
474 4 15912462732733779322
5104073 3 18260265252714510808
7495541 125 18335701680644681144
90316 7 16878213212907573909

>  <PUBCHEM_SHAPE_MULTIPOLES>
349.62
9.88
2.14
1.13
1.18
0.92
-0.11
-0.69
1.95
-1.35
0.42
0.4
-0.05
1.05

>  <PUBCHEM_SHAPE_SELFOVERLAP>
699.375

>  <PUBCHEM_SHAPE_VOLUME>
206.7

>  <PUBCHEM_COORDINATE_TYPE>
2
5
10

$$$$
