117781666
 OpenBabel01182520543D

 22 23  0  0  0  0  0  0  0  0999 V2000
   -0.1381    2.8584   -0.0024 O   0  0  0  0  0  0  0  0  0  0  0  0
   -1.0135   -1.0647   -0.0020 N   0  0  0  0  0  0  0  0  0  0  0  0
   -1.7320    1.2194    0.0009 N   0  0  0  0  0  0  0  0  0  0  0  0
    1.3441   -1.6327    0.0000 N   0  0  0  0  0  0  0  0  0  0  0  0
    0.3556   -0.6985   -0.0006 C   0  0  0  0  0  0  0  0  0  0  0  0
    0.6656    0.6651    0.0001 C   0  0  0  0  0  0  0  0  0  0  0  0
   -1.9723   -0.0602    0.0006 C   0  0  0  0  0  0  0  0  0  0  0  0
   -1.2776   -2.4978   -0.0021 C   0  0  0  0  0  0  0  0  0  0  0  0
   -0.4292    1.6664   -0.0007 C   0  0  0  0  0  0  0  0  0  0  0  0
    2.0014    1.0740    0.0012 C   0  0  0  0  0  0  0  0  0  0  0  0
   -3.4397   -0.4381    0.0031 C   0  0  0  0  0  0  0  0  0  0  0  0
    3.0066    0.1186    0.0013 C   0  0  0  0  0  0  0  0  0  0  0  0
    2.6289   -1.2098    0.0007 C   0  0  0  0  0  0  0  0  0  0  0  0
   -0.8561   -2.9692    0.8932 H   0  0  0  0  0  0  0  0  0  0  0  0
   -0.8439   -2.9718   -0.8902 H   0  0  0  0  0  0  0  0  0  0  0  0
   -2.3453   -2.7326   -0.0098 H   0  0  0  0  0  0  0  0  0  0  0  0
    2.2730    2.1256    0.0016 H   0  0  0  0  0  0  0  0  0  0  0  0
   -3.6714   -1.0204   -0.8930 H   0  0  0  0  0  0  0  0  0  0  0  0
   -4.0701    0.4562    0.0080 H   0  0  0  0  0  0  0  0  0  0  0  0
   -3.6669   -1.0270    0.8961 H   0  0  0  0  0  0  0  0  0  0  0  0
    4.0518    0.4051    0.0019 H   0  0  0  0  0  0  0  0  0  0  0  0
    3.3730   -1.9994    0.0009 H   0  0  0  0  0  0  0  0  0  0  0  0
  1  9  2  0  0  0  0
  2  5  1  0  0  0  0
  2  7  1  0  0  0  0
  2  8  1  0  0  0  0
  3  7  2  0  0  0  0
  3  9  1  0  0  0  0
  4  5  1  0  0  0  0
  4 13  2  0  0  0  0
  5  6  2  0  0  0  0
  6  9  1  0  0  0  0
  6 10  1  0  0  0  0
  7 11  1  0  0  0  0
  8 14  1  0  0  0  0
  8 15  1  0  0  0  0
  8 16  1  0  0  0  0
 10 12  2  0  0  0  0
 10 17  1  0  0  0  0
 11 18  1  0  0  0  0
 11 19  1  0  0  0  0
 11 20  1  0  0  0  0
 12 13  1  0  0  0  0
 12 21  1  0  0  0  0
 13 22  1  0  0  0  0
M  END
>  <PUBCHEM_COMPOUND_CID>
117781666

>  <PUBCHEM_CONFORMER_RMSD>
0.4

>  <PUBCHEM_CONFORMER_DIVERSEORDER>
1

>  <PUBCHEM_MMFF94_PARTIAL_CHARGES>
16
1 -0.57
10 -0.15
11 0.06
12 -0.15
13 0.16
17 0.15
2 -0.52
21 0.15
22 0.15
3 -0.66
4 -0.62
5 0.41
6 0.09
7 0.44
8 0.37
9 0.69

>  <PUBCHEM_EFFECTIVE_ROTOR_COUNT>
0

>  <PUBCHEM_PHARMACOPHORE_FEATURES>
5
1 1 acceptor
1 3 donor
1 4 acceptor
6 2 3 5 6 7 9 rings
6 4 5 6 10 12 13 rings

>  <PUBCHEM_HEAVY_ATOM_COUNT>
13

>  <PUBCHEM_ATOM_DEF_STEREO_COUNT>
0

>  <PUBCHEM_ATOM_UDEF_STEREO_COUNT>
0

>  <PUBCHEM_BOND_DEF_STEREO_COUNT>
0

>  <PUBCHEM_BOND_UDEF_STEREO_COUNT>
0

>  <PUBCHEM_ISOTOPIC_ATOM_COUNT>
0

>  <PUBCHEM_COMPONENT_COUNT>
1

>  <PUBCHEM_CACTVS_TAUTO_COUNT>
3

>  <PUBCHEM_CONFORMER_ID>
070534A200000001

>  <PUBCHEM_MMFF94_ENERGY>
42.319

>  <PUBCHEM_FEATURE_SELFOVERLAP>
25.4

>  <PUBCHEM_SHAPE_FINGERPRINT>
10967382 1 18338516442663719238
11206711 2 18265337196573545172
12032990 46 18410300206914728283
12382932 28 18339920527818673394
12423570 1 17677045849357917829
12524768 44 18342744017696696494
14648413 74 18048033270571994833
16945 1 18410855490245732356
193761 8 17762337320098305827
20201158 50 18408884052986029755
20510252 161 18271804554170298040
20588541 1 18412547630040505962
20871998 184 18201154343347089702
21501502 16 18267026050939740056
2334 1 17546165667634858337
23402539 116 18271230664782127935
23463225 33 18409167709805925394
23552423 10 18260833665818527838
23559900 14 18342741785442272278
241688 4 18410572872765627257
2748010 2 18338233743779708357
5084963 1 18058444296872097770
528886 8 18339639044220450930
53812653 166 18127126596482128928
66348 1 18339923817631675050
7364860 26 17981608482987518873

>  <PUBCHEM_SHAPE_MULTIPOLES>
246.72
4.14
2.47
0.59
0.4
0.41
0
-0.92
0
0.28
0
-0.01
-0.01
0

>  <PUBCHEM_SHAPE_SELFOVERLAP>
531.654

>  <PUBCHEM_SHAPE_VOLUME>
134.4

>  <PUBCHEM_COORDINATE_TYPE>
2
5
10

$$$$
