118102443
 OpenBabel01182520543D

 28 28  0  0  0  0  0  0  0  0999 V2000
    1.1304   -0.1219    1.8612 O   0  0  0  0  0  0  0  0  0  0  0  0
   -3.0273   -2.6200   -0.2336 O   0  0  0  0  0  0  0  0  0  0  0  0
    2.0962    0.7852   -0.0431 N   0  0  0  0  0  0  0  0  0  0  0  0
   -2.5522    0.1659   -0.4057 N   0  0  0  0  0  0  0  0  0  0  0  0
   -1.0278   -1.4794    0.3100 N   0  0  0  0  0  0  0  0  0  0  0  0
    3.4594    0.4829    0.2947 C   0  0  0  0  0  0  0  0  0  0  0  0
    3.8956   -0.8837   -0.2197 C   0  0  0  0  0  0  0  0  0  0  0  0
   -0.3241    0.8108    0.2759 C   0  0  0  0  0  0  0  0  0  0  0  0
    1.0264    0.4528    0.7807 C   0  0  0  0  0  0  0  0  0  0  0  0
    3.8178   -0.9939   -1.7358 C   0  0  0  0  0  0  0  0  0  0  0  0
   -1.3152   -0.1312    0.0515 C   0  0  0  0  0  0  0  0  0  0  0  0
   -0.6219    2.1437    0.0145 C   0  0  0  0  0  0  0  0  0  0  0  0
   -1.8838    2.4887   -0.4567 C   0  0  0  0  0  0  0  0  0  0  0  0
   -2.8050    1.4716   -0.6485 C   0  0  0  0  0  0  0  0  0  0  0  0
   -1.8684   -2.5717    0.1546 C   0  0  0  0  0  0  0  0  0  0  0  0
    3.5776    0.5210    1.3831 H   0  0  0  0  0  0  0  0  0  0  0  0
    4.0847    1.2713   -0.1376 H   0  0  0  0  0  0  0  0  0  0  0  0
    4.9275   -1.0712    0.0986 H   0  0  0  0  0  0  0  0  0  0  0  0
    3.2726   -1.6683    0.2261 H   0  0  0  0  0  0  0  0  0  0  0  0
    1.9159    1.2460   -0.9305 H   0  0  0  0  0  0  0  0  0  0  0  0
    2.7873   -0.9000   -2.0924 H   0  0  0  0  0  0  0  0  0  0  0  0
    4.4221   -0.2183   -2.2170 H   0  0  0  0  0  0  0  0  0  0  0  0
    4.1957   -1.9683   -2.0615 H   0  0  0  0  0  0  0  0  0  0  0  0
    0.1163    2.9245    0.1773 H   0  0  0  0  0  0  0  0  0  0  0  0
   -2.1387    3.5213   -0.6663 H   0  0  0  0  0  0  0  0  0  0  0  0
   -3.8033    1.6881   -1.0143 H   0  0  0  0  0  0  0  0  0  0  0  0
   -0.0938   -1.6901    0.6517 H   0  0  0  0  0  0  0  0  0  0  0  0
   -1.3338   -3.4921    0.4459 H   0  0  0  0  0  0  0  0  0  0  0  0
  1  9  2  0  0  0  0
  2 15  2  0  0  0  0
  3  6  1  0  0  0  0
  3  9  1  0  0  0  0
  3 20  1  0  0  0  0
  4 11  1  0  0  0  0
  4 14  2  0  0  0  0
  5 11  1  0  0  0  0
  5 15  1  0  0  0  0
  5 27  1  0  0  0  0
  6  7  1  0  0  0  0
  6 16  1  0  0  0  0
  6 17  1  0  0  0  0
  7 10  1  0  0  0  0
  7 18  1  0  0  0  0
  7 19  1  0  0  0  0
  8  9  1  0  0  0  0
  8 11  2  0  0  0  0
  8 12  1  0  0  0  0
 10 21  1  0  0  0  0
 10 22  1  0  0  0  0
 10 23  1  0  0  0  0
 12 13  2  0  0  0  0
 12 24  1  0  0  0  0
 13 14  1  0  0  0  0
 13 25  1  0  0  0  0
 14 26  1  0  0  0  0
 15 28  1  0  0  0  0
M  END
>  <PUBCHEM_COMPOUND_CID>
118102443

>  <PUBCHEM_CONFORMER_RMSD>
0.8

>  <PUBCHEM_CONFORMER_DIVERSEORDER>
1
12
22
11
4
21
5
18
17
7
13
8
15
16
9
19
10
6
14
3
2
20

>  <PUBCHEM_MMFF94_PARTIAL_CHARGES>
19
1 -0.57
11 0.43
12 -0.15
13 -0.15
14 0.16
15 0.57
2 -0.57
20 0.37
24 0.15
25 0.15
26 0.15
27 0.37
28 0.06
3 -0.73
4 -0.62
5 -0.55
6 0.3
8 0.09
9 0.54

>  <PUBCHEM_EFFECTIVE_ROTOR_COUNT>
6

>  <PUBCHEM_PHARMACOPHORE_FEATURES>
7
1 1 acceptor
1 10 hydrophobe
1 2 acceptor
1 3 donor
1 4 acceptor
1 5 donor
6 4 8 11 12 13 14 rings

>  <PUBCHEM_HEAVY_ATOM_COUNT>
15

>  <PUBCHEM_ATOM_DEF_STEREO_COUNT>
0

>  <PUBCHEM_ATOM_UDEF_STEREO_COUNT>
0

>  <PUBCHEM_BOND_DEF_STEREO_COUNT>
0

>  <PUBCHEM_BOND_UDEF_STEREO_COUNT>
0

>  <PUBCHEM_ISOTOPIC_ATOM_COUNT>
0

>  <PUBCHEM_COMPONENT_COUNT>
1

>  <PUBCHEM_CACTVS_TAUTO_COUNT>
11

>  <PUBCHEM_CONFORMER_ID>
070A19AB00000001

>  <PUBCHEM_MMFF94_ENERGY>
29.7463

>  <PUBCHEM_FEATURE_SELFOVERLAP>
35.524

>  <PUBCHEM_SHAPE_FINGERPRINT>
10756046 5 18115309015215363276
11127187 94 18410579469888050414
11322862 65 18411137991914955375
116883 192 18267861864555525735
12202030 40 17846498179294926538
12716758 59 18411133610974557680
15502708 8 18409171017025695366
16945 1 18264187193516225313
19873495 37 17677060031403148320
20645476 183 17969220049338347117
20871998 22 18050565445892947923
20871999 31 18335704978615250630
21665056 4 18193843643331765942
22802520 49 18272083933123619296
23526113 38 17774993558265122674
23557571 272 18339361984834162888
23559900 14 18270955749143286994
2748010 2 17976799189426735521
3071541 250 17900826268820702693
57210444 14 18052264994157913789
81228 2 18263078971573304577
9709674 26 18272649022334686134

>  <PUBCHEM_SHAPE_MULTIPOLES>
282.01
6.17
2.72
1.11
6.26
1.28
-0.02
1.36
2.22
-3.23
0.26
0.9
0.08
0.78

>  <PUBCHEM_SHAPE_SELFOVERLAP>
573.49

>  <PUBCHEM_SHAPE_VOLUME>
160.7

>  <PUBCHEM_COORDINATE_TYPE>
2
5
10

$$$$
