11819541
 OpenBabel01182520543D

 22 23  0  0  0  0  0  0  0  0999 V2000
    1.1369    2.0370    0.2249 O   0  0  0  0  0  0  0  0  0  0  0  0
    1.6720   -0.2342    0.2602 N   0  0  0  0  0  0  0  0  0  0  0  0
   -0.0358   -1.8808    0.0860 N   0  0  0  0  0  0  0  0  0  0  0  0
   -2.2712   -1.2522   -0.1112 N   0  0  0  0  0  0  0  0  0  0  0  0
    3.1004    0.0026    0.3971 C   0  0  0  0  0  0  0  0  0  0  0  0
   -0.6239    0.4951    0.0556 C   0  0  0  0  0  0  0  0  0  0  0  0
    0.8023    0.8573    0.1881 C   0  0  0  0  0  0  0  0  0  0  0  0
   -0.9848   -0.8486    0.0097 C   0  0  0  0  0  0  0  0  0  0  0  0
    1.2042   -1.5352    0.2040 C   0  0  0  0  0  0  0  0  0  0  0  0
    3.7778    0.1059   -0.9538 C   0  0  0  0  0  0  0  0  0  0  0  0
   -1.6185    1.4678   -0.0247 C   0  0  0  0  0  0  0  0  0  0  0  0
   -2.9441    1.0714   -0.1488 C   0  0  0  0  0  0  0  0  0  0  0  0
   -3.2154   -0.2861   -0.1871 C   0  0  0  0  0  0  0  0  0  0  0  0
    3.2646    0.9271    0.9615 H   0  0  0  0  0  0  0  0  0  0  0  0
    3.5476   -0.8207    0.9657 H   0  0  0  0  0  0  0  0  0  0  0  0
    1.9898   -2.3044    0.2654 H   0  0  0  0  0  0  0  0  0  0  0  0
    3.6462   -0.8143   -1.5328 H   0  0  0  0  0  0  0  0  0  0  0  0
    3.3625    0.9308   -1.5421 H   0  0  0  0  0  0  0  0  0  0  0  0
    4.8510    0.2810   -0.8306 H   0  0  0  0  0  0  0  0  0  0  0  0
   -1.3805    2.5267    0.0075 H   0  0  0  0  0  0  0  0  0  0  0  0
   -3.7417    1.8027   -0.2137 H   0  0  0  0  0  0  0  0  0  0  0  0
   -4.2347   -0.6455   -0.2832 H   0  0  0  0  0  0  0  0  0  0  0  0
  1  7  2  0  0  0  0
  2  5  1  0  0  0  0
  2  7  1  0  0  0  0
  2  9  1  0  0  0  0
  3  8  1  0  0  0  0
  3  9  2  0  0  0  0
  4  8  1  0  0  0  0
  4 13  2  0  0  0  0
  5 10  1  0  0  0  0
  5 14  1  0  0  0  0
  5 15  1  0  0  0  0
  6  7  1  0  0  0  0
  6  8  2  0  0  0  0
  6 11  1  0  0  0  0
  9 16  1  0  0  0  0
 10 17  1  0  0  0  0
 10 18  1  0  0  0  0
 10 19  1  0  0  0  0
 11 12  2  0  0  0  0
 11 20  1  0  0  0  0
 12 13  1  0  0  0  0
 12 21  1  0  0  0  0
 13 22  1  0  0  0  0
M  END
>  <PUBCHEM_COMPOUND_CID>
11819541

>  <PUBCHEM_CONFORMER_RMSD>
0.4

>  <PUBCHEM_CONFORMER_DIVERSEORDER>
1
4
3
2

>  <PUBCHEM_MMFF94_PARTIAL_CHARGES>
16
1 -0.57
11 -0.15
12 -0.15
13 0.16
16 0.06
2 -0.42
20 0.15
21 0.15
22 0.15
3 -0.63
4 -0.62
5 0.3
6 0.09
7 0.54
8 0.49
9 0.45

>  <PUBCHEM_EFFECTIVE_ROTOR_COUNT>
1

>  <PUBCHEM_PHARMACOPHORE_FEATURES>
4
1 1 acceptor
1 4 acceptor
6 2 3 6 7 8 9 rings
6 4 6 8 11 12 13 rings

>  <PUBCHEM_HEAVY_ATOM_COUNT>
13

>  <PUBCHEM_ATOM_DEF_STEREO_COUNT>
0

>  <PUBCHEM_ATOM_UDEF_STEREO_COUNT>
0

>  <PUBCHEM_BOND_DEF_STEREO_COUNT>
0

>  <PUBCHEM_BOND_UDEF_STEREO_COUNT>
0

>  <PUBCHEM_ISOTOPIC_ATOM_COUNT>
0

>  <PUBCHEM_COMPONENT_COUNT>
1

>  <PUBCHEM_CACTVS_TAUTO_COUNT>
1

>  <PUBCHEM_CONFORMER_ID>
00B45A1500000001

>  <PUBCHEM_MMFF94_ENERGY>
28.0505

>  <PUBCHEM_FEATURE_SELFOVERLAP>
20.333

>  <PUBCHEM_SHAPE_FINGERPRINT>
10465860 71 18269574826478351196
11132069 177 18411130321161263296
11206711 2 18409442596434725157
12032990 46 18341619204590607446
12897270 3 18410569595921734461
13380535 21 18267594519794404347
13380535 76 18409163281821653083
14144814 61 18410288094969498425
14325111 11 18410008814842460080
14911166 2 18411980260549835149
14993402 34 18260831505392053388
15775835 57 18334298630228880893
16945 1 18411130346815042019
18186145 218 18272652337796497208
193761 8 17761772171005526024
20201158 50 18411413995150718875
20645476 183 17894923965928345198
21501502 16 18265328404917986099
2334 1 17834109019617167547
23402539 116 18342450427297433694
23402655 69 18196354954540541085
23463225 33 18262511473428936058
23552423 10 18262795293330994685
23559900 14 18343025493802100268
2748010 2 18050000301000209171
5084963 1 18130787905677587867
528886 8 18410567366654320985
53812653 166 18342449335832544984
63268167 104 18338515223114540553
7364860 26 18056478585025723536

>  <PUBCHEM_SHAPE_MULTIPOLES>
246.72
5.26
1.78
0.7
1.62
0.04
0.07
-0.48
0.97
-0.28
-0.1
0.31
-0.03
-0.06

>  <PUBCHEM_SHAPE_SELFOVERLAP>
530.082

>  <PUBCHEM_SHAPE_VOLUME>
135.2

>  <PUBCHEM_COORDINATE_TYPE>
2
5
10

$$$$
