118705755
 OpenBabel01182520543D

 31 31  0  0  0  0  0  0  0  0999 V2000
    0.5465   -2.3546    0.9992 O   0  0  0  0  0  0  0  0  0  0  0  0
   -0.1870    1.2557    0.2064 N   0  0  0  0  0  0  0  0  0  0  0  0
    1.1546   -1.1829   -0.9072 N   0  0  0  0  0  0  0  0  0  0  0  0
   -2.5328    0.9618    0.0291 N   0  0  0  0  0  0  0  0  0  0  0  0
   -1.0806   -0.9712    0.0312 C   0  0  0  0  0  0  0  0  0  0  0  0
   -1.3067    0.3948    0.0842 C   0  0  0  0  0  0  0  0  0  0  0  0
    0.2531   -1.5528    0.0963 C   0  0  0  0  0  0  0  0  0  0  0  0
   -2.1839   -1.8094   -0.0858 C   0  0  0  0  0  0  0  0  0  0  0  0
   -0.3110    2.6752    0.2692 C   0  0  0  0  0  0  0  0  0  0  0  0
    2.5047   -1.6916   -0.9932 C   0  0  0  0  0  0  0  0  0  0  0  0
   -3.4614   -1.2636   -0.1456 C   0  0  0  0  0  0  0  0  0  0  0  0
   -3.5809    0.1155   -0.0846 C   0  0  0  0  0  0  0  0  0  0  0  0
    1.0534    3.2740    0.3902 C   0  0  0  0  0  0  0  0  0  0  0  0
    3.4107   -0.7897   -0.2181 C   0  0  0  0  0  0  0  0  0  0  0  0
    1.5767    4.1259   -0.4988 C   0  0  0  0  0  0  0  0  0  0  0  0
    4.1445   -1.1874    0.8275 C   0  0  0  0  0  0  0  0  0  0  0  0
    0.6537    0.8344    0.5894 H   0  0  0  0  0  0  0  0  0  0  0  0
   -2.0627   -2.8884   -0.1329 H   0  0  0  0  0  0  0  0  0  0  0  0
   -0.8241    3.0551   -0.6224 H   0  0  0  0  0  0  0  0  0  0  0  0
   -0.9003    2.9716    1.1448 H   0  0  0  0  0  0  0  0  0  0  0  0
    0.8539   -0.5204   -1.6168 H   0  0  0  0  0  0  0  0  0  0  0  0
    2.5304   -2.7215   -0.6223 H   0  0  0  0  0  0  0  0  0  0  0  0
    2.7932   -1.6944   -2.0488 H   0  0  0  0  0  0  0  0  0  0  0  0
   -4.3359   -1.8975   -0.2372 H   0  0  0  0  0  0  0  0  0  0  0  0
   -4.5553    0.5909   -0.1272 H   0  0  0  0  0  0  0  0  0  0  0  0
    1.6440    3.0111    1.2646 H   0  0  0  0  0  0  0  0  0  0  0  0
    3.4804    0.2477   -0.5365 H   0  0  0  0  0  0  0  0  0  0  0  0
    2.5708    4.5332   -0.3495 H   0  0  0  0  0  0  0  0  0  0  0  0
    1.0297    4.4299   -1.3843 H   0  0  0  0  0  0  0  0  0  0  0  0
    4.7877   -0.4849    1.3460 H   0  0  0  0  0  0  0  0  0  0  0  0
    4.1163   -2.2113    1.1834 H   0  0  0  0  0  0  0  0  0  0  0  0
  1  7  2  0  0  0  0
  2  6  1  0  0  0  0
  2  9  1  0  0  0  0
  2 17  1  0  0  0  0
  3  7  1  0  0  0  0
  3 10  1  0  0  0  0
  3 21  1  0  0  0  0
  4  6  1  0  0  0  0
  4 12  2  0  0  0  0
  5  6  2  0  0  0  0
  5  7  1  0  0  0  0
  5  8  1  0  0  0  0
  8 11  2  0  0  0  0
  8 18  1  0  0  0  0
  9 13  1  0  0  0  0
  9 19  1  0  0  0  0
  9 20  1  0  0  0  0
 10 14  1  0  0  0  0
 10 22  1  0  0  0  0
 10 23  1  0  0  0  0
 11 12  1  0  0  0  0
 11 24  1  0  0  0  0
 12 25  1  0  0  0  0
 13 15  2  0  0  0  0
 13 26  1  0  0  0  0
 14 16  2  0  0  0  0
 14 27  1  0  0  0  0
 15 28  1  0  0  0  0
 15 29  1  0  0  0  0
 16 30  1  0  0  0  0
 16 31  1  0  0  0  0
M  END
>  <PUBCHEM_COMPOUND_CID>
118705755

>  <PUBCHEM_CONFORMER_RMSD>
0.8

>  <PUBCHEM_CONFORMER_DIVERSEORDER>
3
10
15
20
14
30
9
21
13
26
18
24
28
2
8
6
27
19
1
7
5
16
12
22
29
25
23
4
11
17

>  <PUBCHEM_MMFF94_PARTIAL_CHARGES>
27
1 -0.57
10 0.44
11 -0.15
12 0.16
13 -0.29
14 -0.29
15 -0.3
16 -0.3
17 0.4
18 0.15
2 -0.87
21 0.37
24 0.15
25 0.15
26 0.15
27 0.15
28 0.15
29 0.15
3 -0.73
30 0.15
31 0.15
4 -0.62
5 0.09
6 0.41
7 0.54
8 -0.15
9 0.51

>  <PUBCHEM_EFFECTIVE_ROTOR_COUNT>
7

>  <PUBCHEM_PHARMACOPHORE_FEATURES>
8
1 1 acceptor
1 15 hydrophobe
1 16 hydrophobe
1 2 cation
1 2 donor
1 3 donor
1 4 acceptor
6 4 5 6 8 11 12 rings

>  <PUBCHEM_HEAVY_ATOM_COUNT>
16

>  <PUBCHEM_ATOM_DEF_STEREO_COUNT>
0

>  <PUBCHEM_ATOM_UDEF_STEREO_COUNT>
0

>  <PUBCHEM_BOND_DEF_STEREO_COUNT>
0

>  <PUBCHEM_BOND_UDEF_STEREO_COUNT>
0

>  <PUBCHEM_ISOTOPIC_ATOM_COUNT>
0

>  <PUBCHEM_COMPONENT_COUNT>
1

>  <PUBCHEM_CACTVS_TAUTO_COUNT>
9

>  <PUBCHEM_CONFORMER_ID>
07134E5B00000003

>  <PUBCHEM_MMFF94_ENERGY>
41.1165

>  <PUBCHEM_FEATURE_SELFOVERLAP>
40.596

>  <PUBCHEM_SHAPE_FINGERPRINT>
10989021 7 18341051916640933519
11578080 2 17315887078901991271
12592029 89 17834401502484255969
13140716 1 18264779929421330899
14022349 108 18195538214230815241
15006816 218 18052257589993491496
15420108 30 16901904651623307434
167882 2 18121774190868242740
17859628 97 17688867958006172808
18785283 64 18191600837628102033
20510252 161 18053663573027605058
20645476 183 16746778997235436532
21665056 4 16897642987761429548
22213442 358 18342737433780993487
23366157 5 18043810007486015069
23402539 116 18271231730029281158
23419403 2 18116687768526312732
23557571 272 18057894545506249006
2748010 2 18269825433387662585
3071541 12 18339929328449535025
3524813 1 17916849258741432314
43471831 8 17618500329865195801
7364860 26 18197499730063589101
81228 2 18054528918685355042
90316 7 18265325115020400024
9925002 15 17127866274373952166

>  <PUBCHEM_SHAPE_MULTIPOLES>
308.46
5.76
4.27
0.84
0.53
5.63
-0.02
-2.9
0.11
3.27
-0.08
0.46
-0.24
-0.19

>  <PUBCHEM_SHAPE_SELFOVERLAP>
624.167

>  <PUBCHEM_SHAPE_VOLUME>
178.6

>  <PUBCHEM_COORDINATE_TYPE>
2
5
10

$$$$
