118705756
 OpenBabel01182520543D

 47 47  0  0  0  0  0  0  0  0999 V2000
   -1.0286   -1.4594   -2.2173 O   0  0  0  0  0  0  0  0  0  0  0  0
    1.8279    0.0550   -0.3063 N   0  0  0  0  0  0  0  0  0  0  0  0
   -1.1567    0.1104   -0.5155 N   0  0  0  0  0  0  0  0  0  0  0  0
    2.4917   -1.9290    0.7505 N   0  0  0  0  0  0  0  0  0  0  0  0
    1.8946    3.0571    0.0299 C   0  0  0  0  0  0  0  0  0  0  0  0
   -3.8582    0.5219    0.7772 C   0  0  0  0  0  0  0  0  0  0  0  0
    3.0420    2.1704   -0.4952 C   0  0  0  0  0  0  0  0  0  0  0  0
   -3.5648    0.4945   -0.7365 C   0  0  0  0  0  0  0  0  0  0  0  0
    3.0513    0.7380    0.0372 C   0  0  0  0  0  0  0  0  0  0  0  0
   -2.1603    0.9466   -1.1339 C   0  0  0  0  0  0  0  0  0  0  0  0
    1.9099    4.4572   -0.5851 C   0  0  0  0  0  0  0  0  0  0  0  0
    1.9802    3.1623    1.5550 C   0  0  0  0  0  0  0  0  0  0  0  0
   -3.6960    1.9488    1.3086 C   0  0  0  0  0  0  0  0  0  0  0  0
   -5.2580    0.0039    1.1106 C   0  0  0  0  0  0  0  0  0  0  0  0
    1.5532   -1.2573    0.0464 C   0  0  0  0  0  0  0  0  0  0  0  0
    0.3399   -1.8007   -0.3440 C   0  0  0  0  0  0  0  0  0  0  0  0
   -0.6506   -1.0524   -1.1056 C   0  0  0  0  0  0  0  0  0  0  0  0
    0.0725   -3.1183    0.0110 C   0  0  0  0  0  0  0  0  0  0  0  0
    1.0134   -3.8418    0.7354 C   0  0  0  0  0  0  0  0  0  0  0  0
    2.1966   -3.2071    1.0776 C   0  0  0  0  0  0  0  0  0  0  0  0
    0.9325    2.5990   -0.2292 H   0  0  0  0  0  0  0  0  0  0  0  0
   -3.1393   -0.1234    1.2968 H   0  0  0  0  0  0  0  0  0  0  0  0
    4.0051    2.6388   -0.2549 H   0  0  0  0  0  0  0  0  0  0  0  0
    2.9807    2.1384   -1.5912 H   0  0  0  0  0  0  0  0  0  0  0  0
   -4.2944    1.1247   -1.2609 H   0  0  0  0  0  0  0  0  0  0  0  0
   -3.7236   -0.5291   -1.1008 H   0  0  0  0  0  0  0  0  0  0  0  0
    3.2071    0.7311    1.1213 H   0  0  0  0  0  0  0  0  0  0  0  0
    3.9021    0.2103   -0.4110 H   0  0  0  0  0  0  0  0  0  0  0  0
   -2.0522    0.8855   -2.2223 H   0  0  0  0  0  0  0  0  0  0  0  0
   -1.9627    1.9818   -0.8428 H   0  0  0  0  0  0  0  0  0  0  0  0
    2.8380    4.9861   -0.3433 H   0  0  0  0  0  0  0  0  0  0  0  0
    1.8272    4.3998   -1.6754 H   0  0  0  0  0  0  0  0  0  0  0  0
    1.0705    5.0561   -0.2163 H   0  0  0  0  0  0  0  0  0  0  0  0
    2.9629    3.5228    1.8772 H   0  0  0  0  0  0  0  0  0  0  0  0
    1.2263    3.8603    1.9360 H   0  0  0  0  0  0  0  0  0  0  0  0
    1.7898    2.1989    2.0375 H   0  0  0  0  0  0  0  0  0  0  0  0
   -2.6567    2.2858    1.2527 H   0  0  0  0  0  0  0  0  0  0  0  0
   -3.9886    2.0028    2.3632 H   0  0  0  0  0  0  0  0  0  0  0  0
   -4.3197    2.6567    0.7521 H   0  0  0  0  0  0  0  0  0  0  0  0
   -6.0311    0.6205    0.6400 H   0  0  0  0  0  0  0  0  0  0  0  0
   -5.4301    0.0082    2.1920 H   0  0  0  0  0  0  0  0  0  0  0  0
   -5.3826   -1.0244    0.7554 H   0  0  0  0  0  0  0  0  0  0  0  0
    1.3068    0.4321   -1.0914 H   0  0  0  0  0  0  0  0  0  0  0  0
   -0.8146    0.3848    0.4011 H   0  0  0  0  0  0  0  0  0  0  0  0
   -0.8646   -3.5926   -0.2686 H   0  0  0  0  0  0  0  0  0  0  0  0
    0.8264   -4.8699    1.0235 H   0  0  0  0  0  0  0  0  0  0  0  0
    2.9629   -3.7276    1.6424 H   0  0  0  0  0  0  0  0  0  0  0  0
  1 17  2  0  0  0  0
  2  9  1  0  0  0  0
  2 15  1  0  0  0  0
  2 43  1  0  0  0  0
  3 10  1  0  0  0  0
  3 17  1  0  0  0  0
  3 44  1  0  0  0  0
  4 15  1  0  0  0  0
  4 20  2  0  0  0  0
  5  7  1  0  0  0  0
  5 11  1  0  0  0  0
  5 12  1  0  0  0  0
  5 21  1  0  0  0  0
  6  8  1  0  0  0  0
  6 13  1  0  0  0  0
  6 14  1  0  0  0  0
  6 22  1  0  0  0  0
  7  9  1  0  0  0  0
  7 23  1  0  0  0  0
  7 24  1  0  0  0  0
  8 10  1  0  0  0  0
  8 25  1  0  0  0  0
  8 26  1  0  0  0  0
  9 27  1  0  0  0  0
  9 28  1  0  0  0  0
 10 29  1  0  0  0  0
 10 30  1  0  0  0  0
 11 31  1  0  0  0  0
 11 32  1  0  0  0  0
 11 33  1  0  0  0  0
 12 34  1  0  0  0  0
 12 35  1  0  0  0  0
 12 36  1  0  0  0  0
 13 37  1  0  0  0  0
 13 38  1  0  0  0  0
 13 39  1  0  0  0  0
 14 40  1  0  0  0  0
 14 41  1  0  0  0  0
 14 42  1  0  0  0  0
 15 16  2  0  0  0  0
 16 17  1  0  0  0  0
 16 18  1  0  0  0  0
 18 19  2  0  0  0  0
 18 45  1  0  0  0  0
 19 20  1  0  0  0  0
 19 46  1  0  0  0  0
 20 47  1  0  0  0  0
M  END
>  <PUBCHEM_COMPOUND_CID>
118705756

>  <PUBCHEM_CONFORMER_RMSD>
1

>  <PUBCHEM_CONFORMER_DIVERSEORDER>
2
91
99
190
95
166
80
86
9
172
85
25
133
155
96
189
182
42
179
113
135
81
63
145
52
171
109
132
157
184
13
142
143
22
127
180
117
101
167
92
186
94
16
123
161
138
153
162
21
107
128
178
54
146
177
82
105
134
90
116
111
53
73
168
67
1
61
39
89
56
40
76
150
139
84
121
75
137
106
174
18
64
72
44
33
110
4
156
148
59
43
108
35
176
140
120
103
26
125
102
27
66
118
164
5
98
14
34
165
57
38
144
115
74
79
69
49
158
93
31
10
131
28
88
23
188
141
183
17
7
170
126
8
36
68
65
129
160
104
114
11
62
3
58
173
181
32
6
151
60
77
124
55
46
12
154
187
119
147
51
185
71
152
24
130
149
70
50
122
15
87
100
97
47
169
19
48
41
159
112
37
136
163
175
45
78
30
20
83
29

>  <PUBCHEM_MMFF94_PARTIAL_CHARGES>
17
1 -0.57
10 0.3
15 0.41
16 0.09
17 0.54
18 -0.15
19 -0.15
2 -0.87
20 0.16
3 -0.73
4 -0.62
43 0.4
44 0.37
45 0.15
46 0.15
47 0.15
9 0.37

>  <PUBCHEM_EFFECTIVE_ROTOR_COUNT>
9

>  <PUBCHEM_PHARMACOPHORE_FEATURES>
8
1 1 acceptor
1 2 cation
1 2 donor
1 3 donor
1 4 acceptor
3 5 11 12 hydrophobe
3 6 13 14 hydrophobe
6 4 15 16 18 19 20 rings

>  <PUBCHEM_HEAVY_ATOM_COUNT>
20

>  <PUBCHEM_ATOM_DEF_STEREO_COUNT>
0

>  <PUBCHEM_ATOM_UDEF_STEREO_COUNT>
0

>  <PUBCHEM_BOND_DEF_STEREO_COUNT>
0

>  <PUBCHEM_BOND_UDEF_STEREO_COUNT>
0

>  <PUBCHEM_ISOTOPIC_ATOM_COUNT>
0

>  <PUBCHEM_COMPONENT_COUNT>
1

>  <PUBCHEM_CACTVS_TAUTO_COUNT>
9

>  <PUBCHEM_CONFORMER_ID>
07134E5C00000002

>  <PUBCHEM_MMFF94_ENERGY>
45.6561

>  <PUBCHEM_FEATURE_SELFOVERLAP>
40.596

>  <PUBCHEM_SHAPE_FINGERPRINT>
10165383 225 18115886233414047796
10366900 7 18042140794632959843
12293681 4 17397538706730212989
12633257 1 17978522931817668425
12788726 201 17331111110205223817
13140716 1 18267577099433672536
14123250 116 17984416605778337005
14955137 171 18338798897452772906
15475509 84 17615136481741849473
20510252 161 17181923883896811590
20681677 76 18189326880220360333
21041028 32 17904194833114637238
21524375 3 18270115837232149396
21641784 216 7938398563030084931
21665062 11 18267584593993030098
22182937 141 17979076316388479548
23558518 356 17980755262222509486
23559900 14 17386573436407105207
23845131 108 18189896594520750755
2637199 183 18200611283398187764
31174 14 18262239911241863303
3797600 57 17988651817526748099
392239 28 18194976359911026419
474 4 18411698811686040225
49207404 50 18260839236528248105
5312544 6 18338795744951350743
6442390 28 18119259603490912835
81228 2 17321824600954047430
8988823 20 18336551513360586417

>  <PUBCHEM_SHAPE_MULTIPOLES>
390.78
6.98
5.59
1.42
9.85
0.45
0.16
4.55
-2.37
-6.22
-1.26
0.68
0.08
-1.09

>  <PUBCHEM_SHAPE_SELFOVERLAP>
773.795

>  <PUBCHEM_SHAPE_VOLUME>
232.3

>  <PUBCHEM_COORDINATE_TYPE>
2
5
10

$$$$
