118999822
 OpenBabel01182520543D

 20 20  0  0  0  0  0  0  0  0999 V2000
   -0.3317   -2.9130   -0.3489 F   0  0  0  0  0  0  0  0  0  0  0  0
   -1.7890   -1.7809    0.7895 F   0  0  0  0  0  0  0  0  0  0  0  0
   -2.4401    1.1963    1.0152 O   0  0  0  0  0  0  0  0  0  0  0  0
    1.9265    1.4984    0.1382 N   0  0  0  0  0  0  0  0  0  0  0  0
    3.6859   -0.1063    0.0568 N   0  0  0  0  0  0  0  0  0  0  0  0
   -2.3597    1.3907   -1.2682 N   0  0  0  0  0  0  0  0  0  0  0  0
    0.0577   -0.5643   -0.1208 C   0  0  0  0  0  0  0  0  0  0  0  0
   -0.3689    0.7549   -0.0157 C   0  0  0  0  0  0  0  0  0  0  0  0
    1.4177   -0.8535   -0.0964 C   0  0  0  0  0  0  0  0  0  0  0  0
   -0.9206   -1.6840   -0.2600 C   0  0  0  0  0  0  0  0  0  0  0  0
    2.3034    0.2043    0.0337 C   0  0  0  0  0  0  0  0  0  0  0  0
    0.5967    1.7407    0.1107 C   0  0  0  0  0  0  0  0  0  0  0  0
   -1.7777    1.1167   -0.0341 C   0  0  0  0  0  0  0  0  0  0  0  0
    1.7792   -1.8739   -0.1772 H   0  0  0  0  0  0  0  0  0  0  0  0
   -1.5120   -1.5561   -1.1722 H   0  0  0  0  0  0  0  0  0  0  0  0
    0.3266    2.7889    0.1970 H   0  0  0  0  0  0  0  0  0  0  0  0
    3.9703   -1.0132    0.4059 H   0  0  0  0  0  0  0  0  0  0  0  0
    4.3288    0.6693    0.1580 H   0  0  0  0  0  0  0  0  0  0  0  0
   -1.8347    1.3375   -2.1354 H   0  0  0  0  0  0  0  0  0  0  0  0
   -3.3371    1.6536   -1.3374 H   0  0  0  0  0  0  0  0  0  0  0  0
  1 10  1  0  0  0  0
  2 10  1  0  0  0  0
  3 13  2  0  0  0  0
  4 11  2  0  0  0  0
  4 12  1  0  0  0  0
  5 11  1  0  0  0  0
  5 17  1  0  0  0  0
  5 18  1  0  0  0  0
  6 13  1  0  0  0  0
  6 19  1  0  0  0  0
  6 20  1  0  0  0  0
  7  8  1  0  0  0  0
  7  9  2  0  0  0  0
  7 10  1  0  0  0  0
  8 12  2  0  0  0  0
  8 13  1  0  0  0  0
  9 11  1  0  0  0  0
  9 14  1  0  0  0  0
 10 15  1  0  0  0  0
 12 16  1  0  0  0  0
M  END
>  <PUBCHEM_COMPOUND_CID>
118999822

>  <PUBCHEM_CONFORMER_RMSD>
0.6

>  <PUBCHEM_CONFORMER_DIVERSEORDER>
1
5
4
3
6
2

>  <PUBCHEM_MMFF94_PARTIAL_CHARGES>
19
1 -0.34
10 0.82
11 0.41
12 0.16
13 0.54
14 0.15
16 0.15
17 0.4
18 0.4
19 0.37
2 -0.34
20 0.37
3 -0.57
4 -0.62
5 -0.9
6 -0.8
7 -0.14
8 0.09
9 -0.15

>  <PUBCHEM_EFFECTIVE_ROTOR_COUNT>
2

>  <PUBCHEM_PHARMACOPHORE_FEATURES>
5
1 3 acceptor
1 5 donor
1 6 donor
3 4 5 11 cation
6 4 7 8 9 11 12 rings

>  <PUBCHEM_HEAVY_ATOM_COUNT>
13

>  <PUBCHEM_ATOM_DEF_STEREO_COUNT>
0

>  <PUBCHEM_ATOM_UDEF_STEREO_COUNT>
0

>  <PUBCHEM_BOND_DEF_STEREO_COUNT>
0

>  <PUBCHEM_BOND_UDEF_STEREO_COUNT>
0

>  <PUBCHEM_ISOTOPIC_ATOM_COUNT>
0

>  <PUBCHEM_COMPONENT_COUNT>
1

>  <PUBCHEM_CACTVS_TAUTO_COUNT>
9

>  <PUBCHEM_CONFORMER_ID>
0717CB0E00000001

>  <PUBCHEM_MMFF94_ENERGY>
41.5323

>  <PUBCHEM_FEATURE_SELFOVERLAP>
25.372

>  <PUBCHEM_SHAPE_FINGERPRINT>
11206711 2 18337672047961895662
12138202 97 18408318878471534662
12423570 1 17968397670285623356
13380535 76 18339075995308805854
161256 15 17907301301165258964
16945 1 18337954485175076736
193761 8 18123467447575864300
20871998 184 18342182218873618798
21040471 1 18411418393128794628
21501502 16 18266463289970375364
23235685 24 18341892931261810344
2334 1 18266739280384657764
23419403 2 12596100650681373240
23552423 10 18044654437111943476
23559900 14 18271815606186351788
241688 4 16466144511053391858
25 1 18120362160561985109
2748010 2 18340214002939537022
528886 8 18341045199206828032
63268167 104 18127118680730814565
6333449 129 18412823603422436896
81228 2 18121492715965105827

>  <PUBCHEM_SHAPE_MULTIPOLES>
232.17
3.72
2.38
0.8
1.91
1.45
0.04
-1.07
-0.1
-0.88
0.06
-0.49
-0.12
0.23

>  <PUBCHEM_SHAPE_SELFOVERLAP>
490.29

>  <PUBCHEM_SHAPE_VOLUME>
130.7

>  <PUBCHEM_COORDINATE_TYPE>
2
5
10

$$$$
