118992597
 OpenBabel01182520543D

 20 20  0  0  0  0  0  0  0  0999 V2000
   -2.8341   -1.7763    0.2122 F   0  0  0  0  0  0  0  0  0  0  0  0
   -3.7131    0.2040    0.2979 F   0  0  0  0  0  0  0  0  0  0  0  0
    2.8034   -1.2723   -1.0882 O   0  0  0  0  0  0  0  0  0  0  0  0
   -0.0026    2.0522    0.0364 N   0  0  0  0  0  0  0  0  0  0  0  0
    2.3553    1.8466    0.1722 N   0  0  0  0  0  0  0  0  0  0  0  0
    2.6476   -1.4483    1.1929 N   0  0  0  0  0  0  0  0  0  0  0  0
   -1.3759    0.0756   -0.1926 C   0  0  0  0  0  0  0  0  0  0  0  0
    1.0158   -0.1385   -0.0553 C   0  0  0  0  0  0  0  0  0  0  0  0
   -0.2391   -0.7249   -0.1774 C   0  0  0  0  0  0  0  0  0  0  0  0
    1.0795    1.2418    0.0474 C   0  0  0  0  0  0  0  0  0  0  0  0
   -1.2052    1.4463   -0.0836 C   0  0  0  0  0  0  0  0  0  0  0  0
   -2.7322   -0.5208   -0.3219 C   0  0  0  0  0  0  0  0  0  0  0  0
    2.2007   -0.9853   -0.0401 C   0  0  0  0  0  0  0  0  0  0  0  0
   -0.3307   -1.8051   -0.2633 H   0  0  0  0  0  0  0  0  0  0  0  0
   -2.0532    2.1241   -0.0917 H   0  0  0  0  0  0  0  0  0  0  0  0
   -3.0023   -0.5950   -1.3799 H   0  0  0  0  0  0  0  0  0  0  0  0
    3.0914    1.3331    0.6407 H   0  0  0  0  0  0  0  0  0  0  0  0
    2.3713    2.8570    0.2410 H   0  0  0  0  0  0  0  0  0  0  0  0
    2.1726   -1.2176    2.0599 H   0  0  0  0  0  0  0  0  0  0  0  0
    3.4715   -2.0362    1.2622 H   0  0  0  0  0  0  0  0  0  0  0  0
  1 12  1  0  0  0  0
  2 12  1  0  0  0  0
  3 13  2  0  0  0  0
  4 10  1  0  0  0  0
  4 11  2  0  0  0  0
  5 10  1  0  0  0  0
  5 17  1  0  0  0  0
  5 18  1  0  0  0  0
  6 13  1  0  0  0  0
  6 19  1  0  0  0  0
  6 20  1  0  0  0  0
  7  9  2  0  0  0  0
  7 11  1  0  0  0  0
  7 12  1  0  0  0  0
  8  9  1  0  0  0  0
  8 10  2  0  0  0  0
  8 13  1  0  0  0  0
  9 14  1  0  0  0  0
 11 15  1  0  0  0  0
 12 16  1  0  0  0  0
M  END
>  <PUBCHEM_COMPOUND_CID>
118992597

>  <PUBCHEM_CONFORMER_RMSD>
0.6

>  <PUBCHEM_CONFORMER_DIVERSEORDER>
2
6
1
3
5
4

>  <PUBCHEM_MMFF94_PARTIAL_CHARGES>
19
1 -0.34
10 0.41
11 0.16
12 0.82
13 0.54
14 0.15
15 0.15
17 0.4
18 0.4
19 0.37
2 -0.34
20 0.37
3 -0.57
4 -0.62
5 -0.9
6 -0.8
7 -0.14
8 0.09
9 -0.15

>  <PUBCHEM_EFFECTIVE_ROTOR_COUNT>
2

>  <PUBCHEM_PHARMACOPHORE_FEATURES>
6
1 3 acceptor
1 4 acceptor
1 5 cation
1 5 donor
1 6 donor
6 4 7 8 9 10 11 rings

>  <PUBCHEM_HEAVY_ATOM_COUNT>
13

>  <PUBCHEM_ATOM_DEF_STEREO_COUNT>
0

>  <PUBCHEM_ATOM_UDEF_STEREO_COUNT>
0

>  <PUBCHEM_BOND_DEF_STEREO_COUNT>
0

>  <PUBCHEM_BOND_UDEF_STEREO_COUNT>
0

>  <PUBCHEM_ISOTOPIC_ATOM_COUNT>
0

>  <PUBCHEM_COMPONENT_COUNT>
1

>  <PUBCHEM_CACTVS_TAUTO_COUNT>
9

>  <PUBCHEM_CONFORMER_ID>
0717AED500000002

>  <PUBCHEM_MMFF94_ENERGY>
41.4259

>  <PUBCHEM_FEATURE_SELFOVERLAP>
30.446

>  <PUBCHEM_SHAPE_FINGERPRINT>
10130415 120 18410572860249827881
10857977 72 18270950237882769914
12423570 1 17916850366363102118
12932764 1 17967530164565109599
14128692 85 18410302380236537684
161256 15 18411419518473627292
16945 1 18194962933262776037
17990270 104 18339924934412992239
20645477 70 18340199795615145927
20653091 64 18408602552629788744
20871998 184 18057031407387719110
20871998 22 18270684169048799494
21501502 16 18411699889643742701
21501925 9 18340190977577489715
23552423 10 18260832630467834421
23559900 14 17766274272745170318
2748010 2 18410845551733971461
528862 383 18338509862974327380
5902787 121 18335132102966365826
7364860 26 18201157749641517304
81228 2 17981885246343005328

>  <PUBCHEM_SHAPE_MULTIPOLES>
232.17
4.75
1.99
0.77
1.97
0.6
-0.01
-1.91
-0.26
-0.6
-0.12
-0.41
-0.23
0.04

>  <PUBCHEM_SHAPE_SELFOVERLAP>
489.205

>  <PUBCHEM_SHAPE_VOLUME>
131.4

>  <PUBCHEM_COORDINATE_TYPE>
2
5
10

$$$$
