119022333
 OpenBabel01182520543D

 20 20  0  0  0  0  0  0  0  0999 V2000
    3.1376   -0.7937    0.7935 F   0  0  0  0  0  0  0  0  0  0  0  0
    2.0058   -2.2926   -0.2899 F   0  0  0  0  0  0  0  0  0  0  0  0
   -2.8206   -1.7537    0.0241 O   0  0  0  0  0  0  0  0  0  0  0  0
    0.0195    2.0773   -0.0043 N   0  0  0  0  0  0  0  0  0  0  0  0
    2.3810    1.8977   -0.1407 N   0  0  0  0  0  0  0  0  0  0  0  0
   -3.7621    0.3339    0.1412 N   0  0  0  0  0  0  0  0  0  0  0  0
    1.0504   -0.1047   -0.1490 C   0  0  0  0  0  0  0  0  0  0  0  0
   -0.2017   -0.7074   -0.1026 C   0  0  0  0  0  0  0  0  0  0  0  0
   -1.3434    0.0804   -0.0071 C   0  0  0  0  0  0  0  0  0  0  0  0
    1.1064    1.2788   -0.0970 C   0  0  0  0  0  0  0  0  0  0  0  0
    2.2724   -0.9528   -0.2522 C   0  0  0  0  0  0  0  0  0  0  0  0
   -1.1803    1.4557    0.0384 C   0  0  0  0  0  0  0  0  0  0  0  0
   -2.6651   -0.5190    0.0458 C   0  0  0  0  0  0  0  0  0  0  0  0
   -0.2866   -1.7903   -0.1409 H   0  0  0  0  0  0  0  0  0  0  0  0
    2.8158   -0.7180   -1.1732 H   0  0  0  0  0  0  0  0  0  0  0  0
   -1.9979    2.1614    0.1133 H   0  0  0  0  0  0  0  0  0  0  0  0
    3.1718    1.4062    0.2568 H   0  0  0  0  0  0  0  0  0  0  0  0
    2.3925    2.9099   -0.1055 H   0  0  0  0  0  0  0  0  0  0  0  0
   -3.7211    1.3448    0.1687 H   0  0  0  0  0  0  0  0  0  0  0  0
   -4.6971   -0.0589    0.1867 H   0  0  0  0  0  0  0  0  0  0  0  0
  1 11  1  0  0  0  0
  2 11  1  0  0  0  0
  3 13  2  0  0  0  0
  4 10  1  0  0  0  0
  4 12  2  0  0  0  0
  5 10  1  0  0  0  0
  5 17  1  0  0  0  0
  5 18  1  0  0  0  0
  6 13  1  0  0  0  0
  6 19  1  0  0  0  0
  6 20  1  0  0  0  0
  7  8  1  0  0  0  0
  7 10  2  0  0  0  0
  7 11  1  0  0  0  0
  8  9  2  0  0  0  0
  8 14  1  0  0  0  0
  9 12  1  0  0  0  0
  9 13  1  0  0  0  0
 11 15  1  0  0  0  0
 12 16  1  0  0  0  0
M  END
>  <PUBCHEM_COMPOUND_CID>
119022333

>  <PUBCHEM_CONFORMER_RMSD>
0.6

>  <PUBCHEM_CONFORMER_DIVERSEORDER>
1
4
2
3

>  <PUBCHEM_MMFF94_PARTIAL_CHARGES>
19
1 -0.34
10 0.41
11 0.82
12 0.16
13 0.54
14 0.15
16 0.15
17 0.4
18 0.4
19 0.37
2 -0.34
20 0.37
3 -0.57
4 -0.62
5 -0.9
6 -0.8
7 -0.14
8 -0.15
9 0.09

>  <PUBCHEM_EFFECTIVE_ROTOR_COUNT>
2

>  <PUBCHEM_PHARMACOPHORE_FEATURES>
6
1 3 acceptor
1 4 acceptor
1 5 cation
1 5 donor
1 6 donor
6 4 7 8 9 10 12 rings

>  <PUBCHEM_HEAVY_ATOM_COUNT>
13

>  <PUBCHEM_ATOM_DEF_STEREO_COUNT>
0

>  <PUBCHEM_ATOM_UDEF_STEREO_COUNT>
0

>  <PUBCHEM_BOND_DEF_STEREO_COUNT>
0

>  <PUBCHEM_BOND_UDEF_STEREO_COUNT>
0

>  <PUBCHEM_ISOTOPIC_ATOM_COUNT>
0

>  <PUBCHEM_COMPONENT_COUNT>
1

>  <PUBCHEM_CACTVS_TAUTO_COUNT>
9

>  <PUBCHEM_CONFORMER_ID>
071822FD00000001

>  <PUBCHEM_MMFF94_ENERGY>
39.0756

>  <PUBCHEM_FEATURE_SELFOVERLAP>
30.446

>  <PUBCHEM_SHAPE_FINGERPRINT>
10130415 120 18409166589167653441
12932764 1 17458054963545249867
13380535 76 18119245314282269162
14325111 11 18338237184243671645
161256 15 18409450280157883564
16945 1 18339083666130796613
17990270 104 18337392750533727051
19021347 11 18122063362447050476
193761 8 18339083670468397132
20201158 50 18408884023032125923
20645477 70 18410007776004128855
20711985 365 18337671902160237229
20871998 184 17985259673350948062
20871998 22 18269561550359905438
21501502 16 18410013281824771213
21501925 9 18339632434271057115
23463225 33 18409729581712142324
23552423 10 18334582364411123805
2748010 2 18410290315604935373
528862 383 18263638631660787508
63268167 104 18339930410712637649
7364860 26 18343023311162271572
81228 2 18120943797564475416

>  <PUBCHEM_SHAPE_MULTIPOLES>
232.17
4.78
2.12
0.62
1.98
0.13
-0.02
-1.41
-0.41
-0.88
0.09
-0.13
-0.03
-0.07

>  <PUBCHEM_SHAPE_SELFOVERLAP>
490.193

>  <PUBCHEM_SHAPE_VOLUME>
130.7

>  <PUBCHEM_COORDINATE_TYPE>
2
5
10

$$$$
