119004084
 OpenBabel01182520543D

 20 20  0  0  0  0  0  0  0  0999 V2000
    2.9853   -1.0179    0.2931 F   0  0  0  0  0  0  0  0  0  0  0  0
    2.3970    0.7523   -0.8122 F   0  0  0  0  0  0  0  0  0  0  0  0
   -0.1333    2.3706   -0.9684 O   0  0  0  0  0  0  0  0  0  0  0  0
   -1.9357   -1.6415   -0.1120 N   0  0  0  0  0  0  0  0  0  0  0  0
   -2.8423    0.5471   -0.1482 N   0  0  0  0  0  0  0  0  0  0  0  0
   -0.2987    2.3342    1.3184 N   0  0  0  0  0  0  0  0  0  0  0  0
    0.6408   -0.5809    0.1139 C   0  0  0  0  0  0  0  0  0  0  0  0
   -0.4589    0.2667    0.0392 C   0  0  0  0  0  0  0  0  0  0  0  0
   -1.7147   -0.3084   -0.0719 C   0  0  0  0  0  0  0  0  0  0  0  0
    0.4538   -1.9583    0.0759 C   0  0  0  0  0  0  0  0  0  0  0  0
    2.0295   -0.0444    0.2343 C   0  0  0  0  0  0  0  0  0  0  0  0
   -0.2800    1.7144    0.0747 C   0  0  0  0  0  0  0  0  0  0  0  0
   -0.8427   -2.4339   -0.0368 C   0  0  0  0  0  0  0  0  0  0  0  0
    1.2821   -2.6560    0.1312 H   0  0  0  0  0  0  0  0  0  0  0  0
    2.1287    0.5428    1.1526 H   0  0  0  0  0  0  0  0  0  0  0  0
   -1.0425   -3.4998   -0.0707 H   0  0  0  0  0  0  0  0  0  0  0  0
   -2.8084    1.4381    0.3314 H   0  0  0  0  0  0  0  0  0  0  0  0
   -3.7452    0.0961   -0.2343 H   0  0  0  0  0  0  0  0  0  0  0  0
   -0.4246    1.8116    2.1795 H   0  0  0  0  0  0  0  0  0  0  0  0
   -0.1853    3.3388    1.4026 H   0  0  0  0  0  0  0  0  0  0  0  0
  1 11  1  0  0  0  0
  2 11  1  0  0  0  0
  3 12  2  0  0  0  0
  4  9  2  0  0  0  0
  4 13  1  0  0  0  0
  5  9  1  0  0  0  0
  5 17  1  0  0  0  0
  5 18  1  0  0  0  0
  6 12  1  0  0  0  0
  6 19  1  0  0  0  0
  6 20  1  0  0  0  0
  7  8  2  0  0  0  0
  7 10  1  0  0  0  0
  7 11  1  0  0  0  0
  8  9  1  0  0  0  0
  8 12  1  0  0  0  0
 10 13  2  0  0  0  0
 10 14  1  0  0  0  0
 11 15  1  0  0  0  0
 13 16  1  0  0  0  0
M  END
>  <PUBCHEM_COMPOUND_CID>
119004084

>  <PUBCHEM_CONFORMER_RMSD>
0.6

>  <PUBCHEM_CONFORMER_DIVERSEORDER>
1
2
3
4

>  <PUBCHEM_MMFF94_PARTIAL_CHARGES>
19
1 -0.34
10 -0.15
11 0.82
12 0.54
13 0.16
14 0.15
16 0.15
17 0.4
18 0.4
19 0.37
2 -0.34
20 0.37
3 -0.57
4 -0.62
5 -0.9
6 -0.8
7 -0.14
8 0.09
9 0.41

>  <PUBCHEM_EFFECTIVE_ROTOR_COUNT>
2

>  <PUBCHEM_PHARMACOPHORE_FEATURES>
5
1 3 acceptor
1 5 donor
1 6 donor
3 4 5 9 cation
6 4 7 8 9 10 13 rings

>  <PUBCHEM_HEAVY_ATOM_COUNT>
13

>  <PUBCHEM_ATOM_DEF_STEREO_COUNT>
0

>  <PUBCHEM_ATOM_UDEF_STEREO_COUNT>
0

>  <PUBCHEM_BOND_DEF_STEREO_COUNT>
0

>  <PUBCHEM_BOND_UDEF_STEREO_COUNT>
0

>  <PUBCHEM_ISOTOPIC_ATOM_COUNT>
0

>  <PUBCHEM_COMPONENT_COUNT>
1

>  <PUBCHEM_CACTVS_TAUTO_COUNT>
9

>  <PUBCHEM_CONFORMER_ID>
0717DBB400000001

>  <PUBCHEM_MMFF94_ENERGY>
42.8886

>  <PUBCHEM_FEATURE_SELFOVERLAP>
25.372

>  <PUBCHEM_SHAPE_FINGERPRINT>
12423570 1 18114736015101298001
12524768 44 18342748441644945142
13380535 220 18192148415618868077
14614273 12 18047465630298066900
16945 1 18188761739179574391
193761 8 17906168812815539987
20511035 2 17981886659661337927
2334 1 18338515369038375042
23552423 10 17542784660668316823
23559900 14 18343299276434257354
241688 4 16751273186562580747
2748010 2 18339077193625838894
353137 74 18192988223290449003
5084963 1 18127127472734428946
528886 8 18410004421133205315
66348 1 18122060076760249655

>  <PUBCHEM_SHAPE_MULTIPOLES>
232.17
2.98
2.75
0.8
0.73
0.43
0.06
-0.68
-0.22
-0.41
0.15
0.11
0.42
-0.16

>  <PUBCHEM_SHAPE_SELFOVERLAP>
491.579

>  <PUBCHEM_SHAPE_VOLUME>
130.2

>  <PUBCHEM_COORDINATE_TYPE>
2
5
10

$$$$
