121380162
 OpenBabel01182520543D

 15 15  0  0  0  0  0  0  0  0999 V2000
   -0.8795   -2.9429   -0.0616 O   0  0  0  0  0  0  0  0  0  0  0  0
   -0.1251    1.7611    0.3316 N   0  0  0  0  0  0  0  0  0  0  0  0
    1.5518    0.2444    0.8618 N   0  0  0  0  0  0  0  0  0  0  0  0
    2.3788    0.2007   -0.0744 N   0  3  0  0  0  0  0  0  0  0  0  0
    3.1279    0.1620   -0.9346 N   0  5  0  0  0  0  0  0  0  0  0  0
   -0.5878   -0.6008    0.1022 C   0  0  0  0  0  0  0  0  0  0  0  0
    0.2421    0.4628    0.4183 C   0  0  0  0  0  0  0  0  0  0  0  0
   -1.8776   -0.3136   -0.3307 C   0  0  0  0  0  0  0  0  0  0  0  0
   -2.2921    1.0097   -0.4329 C   0  0  0  0  0  0  0  0  0  0  0  0
   -1.3860    2.0013   -0.0928 C   0  0  0  0  0  0  0  0  0  0  0  0
   -0.1525   -1.9848    0.2129 C   0  0  0  0  0  0  0  0  0  0  0  0
   -2.5766   -1.1031   -0.5932 H   0  0  0  0  0  0  0  0  0  0  0  0
   -3.2928    1.2574   -0.7679 H   0  0  0  0  0  0  0  0  0  0  0  0
   -1.6602    3.0492   -0.1551 H   0  0  0  0  0  0  0  0  0  0  0  0
    0.8742   -2.1714    0.5666 H   0  0  0  0  0  0  0  0  0  0  0  0
  1 11  2  0  0  0  0
  2  7  1  0  0  0  0
  2 10  2  0  0  0  0
  3  4  2  0  0  0  0
  3  7  1  0  0  0  0
  4  5  2  0  0  0  0
  6  7  2  0  0  0  0
  6  8  1  0  0  0  0
  6 11  1  0  0  0  0
  8  9  2  0  0  0  0
  8 12  1  0  0  0  0
  9 10  1  0  0  0  0
  9 13  1  0  0  0  0
 10 14  1  0  0  0  0
 11 15  1  0  0  0  0
M  CHG  2   4   1   5  -1
M  END
>  <PUBCHEM_COMPOUND_CID>
121380162

>  <PUBCHEM_CONFORMER_RMSD>
0.4

>  <PUBCHEM_CONFORMER_DIVERSEORDER>
1
8
4
9
6
7
5
2
3

>  <PUBCHEM_MMFF94_PARTIAL_CHARGES>
15
1 -0.57
10 0.16
11 0.42
12 0.15
13 0.15
14 0.15
15 0.06
2 -0.62
3 -0.5
4 0.69
5 -0.37
6 0.09
7 0.49
8 -0.15
9 -0.15

>  <PUBCHEM_EFFECTIVE_ROTOR_COUNT>
2

>  <PUBCHEM_PHARMACOPHORE_FEATURES>
3
1 1 acceptor
1 2 acceptor
6 2 6 7 8 9 10 rings

>  <PUBCHEM_HEAVY_ATOM_COUNT>
11

>  <PUBCHEM_ATOM_DEF_STEREO_COUNT>
0

>  <PUBCHEM_ATOM_UDEF_STEREO_COUNT>
0

>  <PUBCHEM_BOND_DEF_STEREO_COUNT>
0

>  <PUBCHEM_BOND_UDEF_STEREO_COUNT>
1

>  <PUBCHEM_ISOTOPIC_ATOM_COUNT>
0

>  <PUBCHEM_COMPONENT_COUNT>
1

>  <PUBCHEM_CACTVS_TAUTO_COUNT>
1

>  <PUBCHEM_CONFORMER_ID>
073C1D4200000001

>  <PUBCHEM_MMFF94_ENERGY>
25.7588

>  <PUBCHEM_FEATURE_SELFOVERLAP>
15.223

>  <PUBCHEM_SHAPE_FINGERPRINT>
12716758 59 18412261740206485360
161256 15 17472701802472415019
16945 1 18337944679521841689
193761 8 17689428708635229313
20645476 183 18041002825678117966
20871998 22 17618224348194303162
21040471 1 18338502067402879008
23552423 10 17833827166888881245
23559900 14 18343581820926337986
241688 4 16033229369932946683
2748010 2 18338509729846165387
53812653 11 18340490088037947343

>  <PUBCHEM_SHAPE_MULTIPOLES>
200.58
3.16
2.44
0.76
1.9
1.88
0.03
-1.4
0.95
-0.69
-0.06
0.24
-0.09
-0.09

>  <PUBCHEM_SHAPE_SELFOVERLAP>
420.701

>  <PUBCHEM_SHAPE_VOLUME>
111.5

>  <PUBCHEM_COORDINATE_TYPE>
2
5
10

$$$$
