121593660
 OpenBabel01182520543D

 28 28  0  0  0  0  0  0  0  0999 V2000
   -0.7783   -1.6207   -0.8959 O   0  0  0  0  0  0  0  0  0  0  0  0
   -1.2406    0.6264   -0.5531 N   0  0  0  0  0  0  0  0  0  0  0  0
   -4.8761    0.2305    0.1143 N   0  0  0  0  0  0  0  0  0  0  0  0
    2.8932    1.2666   -0.1450 N   0  0  0  0  0  0  0  0  0  0  0  0
    4.9852    0.4855    0.6859 N   0  0  0  0  0  0  0  0  0  0  0  0
   -2.6479    0.5575   -0.8385 C   0  0  0  0  0  0  0  0  0  0  0  0
   -3.4519    0.2678    0.4204 C   0  0  0  0  0  0  0  0  0  0  0  0
   -0.4087   -0.4859   -0.6062 C   0  0  0  0  0  0  0  0  0  0  0  0
    1.0166   -0.2534   -0.2579 C   0  0  0  0  0  0  0  0  0  0  0  0
    1.8035   -1.2752    0.2620 C   0  0  0  0  0  0  0  0  0  0  0  0
   -5.6606   -0.0085    1.3178 C   0  0  0  0  0  0  0  0  0  0  0  0
    1.6037    0.9881   -0.4407 C   0  0  0  0  0  0  0  0  0  0  0  0
    3.1347   -1.0275    0.5786 C   0  0  0  0  0  0  0  0  0  0  0  0
    3.6271    0.2488    0.3583 C   0  0  0  0  0  0  0  0  0  0  0  0
   -2.9360    1.5236   -1.2680 H   0  0  0  0  0  0  0  0  0  0  0  0
   -2.8225   -0.2150   -1.5964 H   0  0  0  0  0  0  0  0  0  0  0  0
   -3.1297   -0.6880    0.8525 H   0  0  0  0  0  0  0  0  0  0  0  0
   -3.2453    1.0475    1.1645 H   0  0  0  0  0  0  0  0  0  0  0  0
   -0.8809    1.5236   -0.2453 H   0  0  0  0  0  0  0  0  0  0  0  0
   -5.0619   -0.5077   -0.5639 H   0  0  0  0  0  0  0  0  0  0  0  0
    1.3956   -2.2681    0.4303 H   0  0  0  0  0  0  0  0  0  0  0  0
   -5.5126    0.7890    2.0531 H   0  0  0  0  0  0  0  0  0  0  0  0
   -5.4099   -0.9706    1.7766 H   0  0  0  0  0  0  0  0  0  0  0  0
   -6.7245   -0.0253    1.0615 H   0  0  0  0  0  0  0  0  0  0  0  0
    1.0709    1.8319   -0.8664 H   0  0  0  0  0  0  0  0  0  0  0  0
    3.7548   -1.8199    0.9849 H   0  0  0  0  0  0  0  0  0  0  0  0
    5.4080   -0.0704    1.4191 H   0  0  0  0  0  0  0  0  0  0  0  0
    5.3391    1.4211    0.5291 H   0  0  0  0  0  0  0  0  0  0  0  0
  1  8  2  0  0  0  0
  2  6  1  0  0  0  0
  2  8  1  0  0  0  0
  2 19  1  0  0  0  0
  3  7  1  0  0  0  0
  3 11  1  0  0  0  0
  3 20  1  0  0  0  0
  4 12  1  0  0  0  0
  4 14  2  0  0  0  0
  5 14  1  0  0  0  0
  5 27  1  0  0  0  0
  5 28  1  0  0  0  0
  6  7  1  0  0  0  0
  6 15  1  0  0  0  0
  6 16  1  0  0  0  0
  7 17  1  0  0  0  0
  7 18  1  0  0  0  0
  8  9  1  0  0  0  0
  9 10  1  0  0  0  0
  9 12  2  0  0  0  0
 10 13  2  0  0  0  0
 10 21  1  0  0  0  0
 11 22  1  0  0  0  0
 11 23  1  0  0  0  0
 11 24  1  0  0  0  0
 12 25  1  0  0  0  0
 13 14  1  0  0  0  0
 13 26  1  0  0  0  0
M  END
>  <PUBCHEM_COMPOUND_CID>
121593660

>  <PUBCHEM_CONFORMER_RMSD>
0.6

>  <PUBCHEM_CONFORMER_DIVERSEORDER>
1
32
47
40
52
54
30
3
14
19
45
31
6
59
20
57
12
25
41
34
35
26
17
56
43
36
28
50
24
11
44
58
33
21
39
29
2
13
55
18
27
15
42
7
9
4
46
37
22
53
49
38
5
23
8
48
51
16
10

>  <PUBCHEM_MMFF94_PARTIAL_CHARGES>
21
1 -0.57
10 -0.15
11 0.27
12 0.16
13 -0.15
14 0.41
19 0.37
2 -0.73
20 0.36
21 0.15
25 0.15
26 0.15
27 0.4
28 0.4
3 -0.9
4 -0.62
5 -0.9
6 0.3
7 0.27
8 0.54
9 0.09

>  <PUBCHEM_EFFECTIVE_ROTOR_COUNT>
5

>  <PUBCHEM_PHARMACOPHORE_FEATURES>
7
1 1 acceptor
1 2 donor
1 3 cation
1 3 donor
1 5 donor
3 4 5 14 cation
6 4 9 10 12 13 14 rings

>  <PUBCHEM_HEAVY_ATOM_COUNT>
14

>  <PUBCHEM_ATOM_DEF_STEREO_COUNT>
0

>  <PUBCHEM_ATOM_UDEF_STEREO_COUNT>
0

>  <PUBCHEM_BOND_DEF_STEREO_COUNT>
0

>  <PUBCHEM_BOND_UDEF_STEREO_COUNT>
0

>  <PUBCHEM_ISOTOPIC_ATOM_COUNT>
0

>  <PUBCHEM_COMPONENT_COUNT>
1

>  <PUBCHEM_CACTVS_TAUTO_COUNT>
9

>  <PUBCHEM_CONFORMER_ID>
073F5F3C00000001

>  <PUBCHEM_MMFF94_ENERGY>
31.1692

>  <PUBCHEM_FEATURE_SELFOVERLAP>
35.522

>  <PUBCHEM_SHAPE_FINGERPRINT>
100836 57 16272211894495611545
10354089 29 18413393137334032248
10498660 4 14619964686600948683
11401426 45 9727626207411177758
12251169 10 18334576849847130607
12500047 106 13829841439686890837
12507560 40 18187640250288372149
12670543 26 11240012156367076184
14252887 29 18260553277220857178
14911166 2 10231754500311954116
14943859 89 16487255478135981871
17834072 33 15430046473416888782
18186145 218 15984807229974850969
20645477 70 18191565481098781471
20871999 31 13110665165215537085
21119208 17 10519983772667509825
212847 35 15841555136904451595
21637258 2 13912589547238746472
221357 26 10015584957505903843
22854114 59 18407759227137301353
23402539 116 16128648656761679556
26918003 58 17676488350350932633
4047638 21 17846499244726241368
42 15 17676489432392430313
449060 50 18407755945856166420
5104073 3 18269259322533828810
522135 26 10447930551090983469

>  <PUBCHEM_SHAPE_MULTIPOLES>
262.32
10.45
1.22
0.97
9.83
0.18
0.06
-0.92
4.94
-0.77
-0.14
0.65
0.1
0.11

>  <PUBCHEM_SHAPE_SELFOVERLAP>
529.451

>  <PUBCHEM_SHAPE_VOLUME>
152.8

>  <PUBCHEM_COORDINATE_TYPE>
2
5
10

$$$$
