12254382
 OpenBabel01182520543D

 27 28  0  0  0  0  0  0  0  0999 V2000
   -0.2410   -2.4865    0.9525 O   0  0  0  0  0  0  0  0  0  0  0  0
    1.0438    0.5545    0.0401 N   0  0  0  0  0  0  0  0  0  0  0  0
   -0.9469    1.8780    0.1026 N   0  0  0  0  0  0  0  0  0  0  0  0
   -0.2237   -2.3669   -1.3375 N   0  0  0  0  0  0  0  0  0  0  0  0
    3.2586    0.2965    0.7873 C   0  0  0  0  0  0  0  0  0  0  0  0
    3.2716    0.5368   -0.7123 C   0  0  0  0  0  0  0  0  0  0  0  0
    1.8234   -0.1509    1.0545 C   0  0  0  0  0  0  0  0  0  0  0  0
    1.9022    1.1586   -0.9759 C   0  0  0  0  0  0  0  0  0  0  0  0
   -0.3317    0.6415    0.0429 C   0  0  0  0  0  0  0  0  0  0  0  0
   -1.1258   -0.5301   -0.0153 C   0  0  0  0  0  0  0  0  0  0  0  0
   -2.5130   -0.4345   -0.0122 C   0  0  0  0  0  0  0  0  0  0  0  0
   -0.5018   -1.8444   -0.0788 C   0  0  0  0  0  0  0  0  0  0  0  0
   -2.2978    1.9313    0.1038 C   0  0  0  0  0  0  0  0  0  0  0  0
   -3.1180    0.8160    0.0483 C   0  0  0  0  0  0  0  0  0  0  0  0
    3.9966   -0.4443    1.1073 H   0  0  0  0  0  0  0  0  0  0  0  0
    3.4631    1.2349    1.3169 H   0  0  0  0  0  0  0  0  0  0  0  0
    4.0933    1.1822   -1.0346 H   0  0  0  0  0  0  0  0  0  0  0  0
    3.3572   -0.4195   -1.2425 H   0  0  0  0  0  0  0  0  0  0  0  0
    1.7817   -1.2330    0.9214 H   0  0  0  0  0  0  0  0  0  0  0  0
    1.5101    0.1043    2.0720 H   0  0  0  0  0  0  0  0  0  0  0  0
    1.9345    2.2452   -0.8384 H   0  0  0  0  0  0  0  0  0  0  0  0
    1.5568    0.9363   -1.9908 H   0  0  0  0  0  0  0  0  0  0  0  0
   -3.1326   -1.3262   -0.0562 H   0  0  0  0  0  0  0  0  0  0  0  0
   -2.7200    2.9295    0.1522 H   0  0  0  0  0  0  0  0  0  0  0  0
   -4.1975    0.9146    0.0521 H   0  0  0  0  0  0  0  0  0  0  0  0
   -0.4352   -1.8592   -2.1907 H   0  0  0  0  0  0  0  0  0  0  0  0
    0.2054   -3.2805   -1.4401 H   0  0  0  0  0  0  0  0  0  0  0  0
  1 12  2  0  0  0  0
  2  7  1  0  0  0  0
  2  8  1  0  0  0  0
  2  9  1  0  0  0  0
  3  9  1  0  0  0  0
  3 13  2  0  0  0  0
  4 12  1  0  0  0  0
  4 26  1  0  0  0  0
  4 27  1  0  0  0  0
  5  6  1  0  0  0  0
  5  7  1  0  0  0  0
  5 15  1  0  0  0  0
  5 16  1  0  0  0  0
  6  8  1  0  0  0  0
  6 17  1  0  0  0  0
  6 18  1  0  0  0  0
  7 19  1  0  0  0  0
  7 20  1  0  0  0  0
  8 21  1  0  0  0  0
  8 22  1  0  0  0  0
  9 10  2  0  0  0  0
 10 11  1  0  0  0  0
 10 12  1  0  0  0  0
 11 14  2  0  0  0  0
 11 23  1  0  0  0  0
 13 14  1  0  0  0  0
 13 24  1  0  0  0  0
 14 25  1  0  0  0  0
M  END
>  <PUBCHEM_COMPOUND_CID>
12254382

>  <PUBCHEM_CONFORMER_RMSD>
0.6

>  <PUBCHEM_CONFORMER_DIVERSEORDER>
1
2
6
5
3
4

>  <PUBCHEM_MMFF94_PARTIAL_CHARGES>
17
1 -0.57
10 0.09
11 -0.15
12 0.54
13 0.16
14 -0.15
2 -0.84
23 0.15
24 0.15
25 0.15
26 0.37
27 0.37
3 -0.62
4 -0.8
7 0.37
8 0.37
9 0.41

>  <PUBCHEM_EFFECTIVE_ROTOR_COUNT>
3

>  <PUBCHEM_PHARMACOPHORE_FEATURES>
6
1 1 acceptor
1 2 cation
1 3 acceptor
1 4 donor
5 2 5 6 7 8 rings
6 3 9 10 11 13 14 rings

>  <PUBCHEM_HEAVY_ATOM_COUNT>
14

>  <PUBCHEM_ATOM_DEF_STEREO_COUNT>
0

>  <PUBCHEM_ATOM_UDEF_STEREO_COUNT>
0

>  <PUBCHEM_BOND_DEF_STEREO_COUNT>
0

>  <PUBCHEM_BOND_UDEF_STEREO_COUNT>
0

>  <PUBCHEM_ISOTOPIC_ATOM_COUNT>
0

>  <PUBCHEM_COMPONENT_COUNT>
1

>  <PUBCHEM_CACTVS_TAUTO_COUNT>
2

>  <PUBCHEM_CONFORMER_ID>
00BAFCAE00000001

>  <PUBCHEM_MMFF94_ENERGY>
59.7061

>  <PUBCHEM_FEATURE_SELFOVERLAP>
30.446

>  <PUBCHEM_SHAPE_FINGERPRINT>
1 1 18197775492580750462
11578080 2 12030088067882549626
12202030 40 16699518482964251460
12716758 59 18342461469215382680
13380535 76 18337389327813907825
13538477 17 18042121123461042162
14817 1 13207463260646442978
14993402 34 18259985980771146956
15076042 46 18334861657465281362
15279307 12 18040435529481511370
15309172 13 18409456864353200513
15490181 8 18336841787870874129
15669948 3 18267022937188729364
15775835 57 18341891861783110441
15906896 17 18337111284173688491
16945 1 18335142032903951497
18175812 5 13118004400576707200
18186145 218 17846783974945654560
20510252 161 18272655661937862201
20645476 183 17822866375821069446
20871998 184 18198911494292942775
21524375 3 18411134701906514387
23402539 116 18271794757165136589
23419403 2 11299981328642886173
23463225 33 18188766120293928498
23552423 10 18048318851690297633
23559900 14 18273497880251510788
2748010 2 18267029349347951559
276578 36 18269844116231870769
305870 269 18191866730041073201
430814 3 18114178622914776698
43471831 8 18335698300062820931
528862 383 18043240245761954795
53812653 8 18334862735460036937
5706482 22 18412254017681337331
7364860 26 17840586990030304823
77492 1 17967248715295016040
81228 2 18124306374847345059
81539 233 18189614943507980797

>  <PUBCHEM_SHAPE_MULTIPOLES>
267.3
4.66
2.28
0.99
1.67
1.19
0.07
-1.99
-0.14
-1.06
0.19
0.53
0.27
-0.31

>  <PUBCHEM_SHAPE_SELFOVERLAP>
563.317

>  <PUBCHEM_SHAPE_VOLUME>
151.1

>  <PUBCHEM_COORDINATE_TYPE>
2
5
10

$$$$
