12267034
 OpenBabel01182520543D

 29 29  0  0  0  0  0  0  0  0999 V2000
   -0.1918   -1.8718    0.6221 O   0  0  0  0  0  0  0  0  0  0  0  0
   -1.1626   -0.3717   -0.8574 N   0  0  0  0  0  0  0  0  0  0  0  0
    3.4864    0.1192    0.1961 N   0  0  0  0  0  0  0  0  0  0  0  0
    2.4389   -2.0020    0.3499 N   0  0  0  0  0  0  0  0  0  0  0  0
   -3.4352   -0.5524    0.0724 C   0  0  0  0  0  0  0  0  0  0  0  0
   -2.4313   -1.0368   -0.9685 C   0  0  0  0  0  0  0  0  0  0  0  0
   -3.7459    0.9402   -0.0603 C   0  0  0  0  0  0  0  0  0  0  0  0
   -4.7933    1.3813    0.9502 C   0  0  0  0  0  0  0  0  0  0  0  0
   -0.1305   -0.8513   -0.0586 C   0  0  0  0  0  0  0  0  0  0  0  0
    1.1098   -0.0339   -0.0312 C   0  0  0  0  0  0  0  0  0  0  0  0
    2.3417   -0.5997    0.1665 C   0  0  0  0  0  0  0  0  0  0  0  0
    0.9981    1.3261   -0.2113 C   0  0  0  0  0  0  0  0  0  0  0  0
    2.1535    2.0994   -0.1875 C   0  0  0  0  0  0  0  0  0  0  0  0
    3.3621    1.4535    0.0177 C   0  0  0  0  0  0  0  0  0  0  0  0
   -3.0493   -0.7541    1.0793 H   0  0  0  0  0  0  0  0  0  0  0  0
   -4.3613   -1.1293   -0.0381 H   0  0  0  0  0  0  0  0  0  0  0  0
   -2.8103   -0.8519   -1.9794 H   0  0  0  0  0  0  0  0  0  0  0  0
   -2.2820   -2.1167   -0.8604 H   0  0  0  0  0  0  0  0  0  0  0  0
   -4.1096    1.1557   -1.0717 H   0  0  0  0  0  0  0  0  0  0  0  0
   -2.8375    1.5339    0.0922 H   0  0  0  0  0  0  0  0  0  0  0  0
   -1.0273    0.4519   -1.4342 H   0  0  0  0  0  0  0  0  0  0  0  0
   -4.4479    1.2071    1.9742 H   0  0  0  0  0  0  0  0  0  0  0  0
   -5.0010    2.4501    0.8387 H   0  0  0  0  0  0  0  0  0  0  0  0
   -5.7317    0.8362    0.8062 H   0  0  0  0  0  0  0  0  0  0  0  0
    0.0483    1.8349   -0.3388 H   0  0  0  0  0  0  0  0  0  0  0  0
    2.1091    3.1747   -0.3174 H   0  0  0  0  0  0  0  0  0  0  0  0
    4.2921    2.0117    0.0469 H   0  0  0  0  0  0  0  0  0  0  0  0
    1.6777   -2.4863    0.8085 H   0  0  0  0  0  0  0  0  0  0  0  0
    3.3721   -2.3731    0.4825 H   0  0  0  0  0  0  0  0  0  0  0  0
  1  9  2  0  0  0  0
  2  6  1  0  0  0  0
  2  9  1  0  0  0  0
  2 21  1  0  0  0  0
  3 11  1  0  0  0  0
  3 14  2  0  0  0  0
  4 11  1  0  0  0  0
  4 28  1  0  0  0  0
  4 29  1  0  0  0  0
  5  6  1  0  0  0  0
  5  7  1  0  0  0  0
  5 15  1  0  0  0  0
  5 16  1  0  0  0  0
  6 17  1  0  0  0  0
  6 18  1  0  0  0  0
  7  8  1  0  0  0  0
  7 19  1  0  0  0  0
  7 20  1  0  0  0  0
  8 22  1  0  0  0  0
  8 23  1  0  0  0  0
  8 24  1  0  0  0  0
  9 10  1  0  0  0  0
 10 11  2  0  0  0  0
 10 12  1  0  0  0  0
 12 13  2  0  0  0  0
 12 25  1  0  0  0  0
 13 14  1  0  0  0  0
 13 26  1  0  0  0  0
 14 27  1  0  0  0  0
M  END
>  <PUBCHEM_COMPOUND_CID>
12267034

>  <PUBCHEM_CONFORMER_RMSD>
0.6

>  <PUBCHEM_CONFORMER_DIVERSEORDER>
4
22
56
16
42
31
23
26
47
10
24
61
46
11
28
33
52
58
12
30
35
1
7
45
57
34
5
21
36
25
44
15
39
14
29
20
60
48
59
53
37
41
3
13
17
49
18
27
38
55
51
6
2
9
40
32
50
19
8
54
43

>  <PUBCHEM_MMFF94_PARTIAL_CHARGES>
17
1 -0.57
10 0.09
11 0.41
12 -0.15
13 -0.15
14 0.16
2 -0.73
21 0.37
25 0.15
26 0.15
27 0.15
28 0.4
29 0.4
3 -0.62
4 -0.9
6 0.3
9 0.54

>  <PUBCHEM_EFFECTIVE_ROTOR_COUNT>
5

>  <PUBCHEM_PHARMACOPHORE_FEATURES>
7
1 1 acceptor
1 2 donor
1 3 acceptor
1 4 cation
1 4 donor
1 8 hydrophobe
6 3 10 11 12 13 14 rings

>  <PUBCHEM_HEAVY_ATOM_COUNT>
14

>  <PUBCHEM_ATOM_DEF_STEREO_COUNT>
0

>  <PUBCHEM_ATOM_UDEF_STEREO_COUNT>
0

>  <PUBCHEM_BOND_DEF_STEREO_COUNT>
0

>  <PUBCHEM_BOND_UDEF_STEREO_COUNT>
0

>  <PUBCHEM_ISOTOPIC_ATOM_COUNT>
0

>  <PUBCHEM_COMPONENT_COUNT>
1

>  <PUBCHEM_CACTVS_TAUTO_COUNT>
5

>  <PUBCHEM_CONFORMER_ID>
00BB2E1A00000004

>  <PUBCHEM_MMFF94_ENERGY>
33.4971

>  <PUBCHEM_FEATURE_SELFOVERLAP>
35.52

>  <PUBCHEM_SHAPE_FINGERPRINT>
10465860 228 18411703170761094193
10980938 120 18408036320957245822
11471102 20 18335974337668463382
12932764 1 17346030211837019711
13380535 21 18114748264585747382
14144814 61 18337102453651862495
14325111 11 18337105765171907031
15442244 35 18268146465872632864
15775835 57 18343024406442365497
16945 1 18261658372796514030
17844478 74 17385715889924460117
18186145 218 18408882932015253639
201361 129 18410574006631562386
20233049 118 17489585658062582961
20711983 171 18060700606733727349
21501502 16 18190734439392108438
22094290 62 18412260610519329647
22485316 2 8862952662499502135
23402655 69 18271807946988694324
23557571 272 15768914905231371395
23598291 2 18200578280890734246
25 1 18335136535730927934
2748010 2 18046885114387087670
5104073 3 18408880775925814898
602551 16 15647348475637230529
7832392 63 18343016722339496285
81228 2 15229569984521126963
84936 182 17985259918343945336

>  <PUBCHEM_SHAPE_MULTIPOLES>
267.3
7.76
2.06
0.81
6.83
0.1
0.03
3.3
-1.33
-0.71
-0.19
0.47
-0.04
-0.87

>  <PUBCHEM_SHAPE_SELFOVERLAP>
541.559

>  <PUBCHEM_SHAPE_VOLUME>
155.1

>  <PUBCHEM_COORDINATE_TYPE>
2
5
10

$$$$
