12267033
 OpenBabel01182520543D

 26 26  0  0  0  0  0  0  0  0999 V2000
    0.8299   -1.8259    0.9104 O   0  0  0  0  0  0  0  0  0  0  0  0
    1.4980    0.3400    0.4166 N   0  0  0  0  0  0  0  0  0  0  0  0
   -2.5939    1.2446   -0.0676 N   0  0  0  0  0  0  0  0  0  0  0  0
   -0.4994    1.9372    0.8001 N   0  0  0  0  0  0  0  0  0  0  0  0
    2.8891    0.1666    0.7311 C   0  0  0  0  0  0  0  0  0  0  0  0
    3.7048   -0.2854   -0.4741 C   0  0  0  0  0  0  0  0  0  0  0  0
   -0.8269   -0.3539    0.1445 C   0  0  0  0  0  0  0  0  0  0  0  0
    0.5677   -0.6866    0.5338 C   0  0  0  0  0  0  0  0  0  0  0  0
    3.6681    0.7172   -1.6188 C   0  0  0  0  0  0  0  0  0  0  0  0
   -1.3297    0.9135    0.2780 C   0  0  0  0  0  0  0  0  0  0  0  0
   -1.6196   -1.3586   -0.3619 C   0  0  0  0  0  0  0  0  0  0  0  0
   -2.9264   -1.0568   -0.7288 C   0  0  0  0  0  0  0  0  0  0  0  0
   -3.3615    0.2482   -0.5634 C   0  0  0  0  0  0  0  0  0  0  0  0
    2.9870   -0.5681    1.5378 H   0  0  0  0  0  0  0  0  0  0  0  0
    3.2602    1.1267    1.1055 H   0  0  0  0  0  0  0  0  0  0  0  0
    4.7456   -0.4338   -0.1640 H   0  0  0  0  0  0  0  0  0  0  0  0
    3.3350   -1.2521   -0.8360 H   0  0  0  0  0  0  0  0  0  0  0  0
    1.2268    1.2284    0.0075 H   0  0  0  0  0  0  0  0  0  0  0  0
    4.0207    1.7001   -1.2908 H   0  0  0  0  0  0  0  0  0  0  0  0
    4.3158    0.3799   -2.4343 H   0  0  0  0  0  0  0  0  0  0  0  0
    2.6567    0.8295   -2.0217 H   0  0  0  0  0  0  0  0  0  0  0  0
   -1.2559   -2.3738   -0.4884 H   0  0  0  0  0  0  0  0  0  0  0  0
   -3.5833   -1.8185   -1.1331 H   0  0  0  0  0  0  0  0  0  0  0  0
   -4.3720    0.5354   -0.8349 H   0  0  0  0  0  0  0  0  0  0  0  0
   -0.9172    2.8598    0.8418 H   0  0  0  0  0  0  0  0  0  0  0  0
    0.1156    1.6909    1.5678 H   0  0  0  0  0  0  0  0  0  0  0  0
  1  8  2  0  0  0  0
  2  5  1  0  0  0  0
  2  8  1  0  0  0  0
  2 18  1  0  0  0  0
  3 10  1  0  0  0  0
  3 13  2  0  0  0  0
  4 10  1  0  0  0  0
  4 25  1  0  0  0  0
  4 26  1  0  0  0  0
  5  6  1  0  0  0  0
  5 14  1  0  0  0  0
  5 15  1  0  0  0  0
  6  9  1  0  0  0  0
  6 16  1  0  0  0  0
  6 17  1  0  0  0  0
  7  8  1  0  0  0  0
  7 10  2  0  0  0  0
  7 11  1  0  0  0  0
  9 19  1  0  0  0  0
  9 20  1  0  0  0  0
  9 21  1  0  0  0  0
 11 12  2  0  0  0  0
 11 22  1  0  0  0  0
 12 13  1  0  0  0  0
 12 23  1  0  0  0  0
 13 24  1  0  0  0  0
M  END
>  <PUBCHEM_COMPOUND_CID>
12267033

>  <PUBCHEM_CONFORMER_RMSD>
0.6

>  <PUBCHEM_CONFORMER_DIVERSEORDER>
17
4
2
9
5
12
21
19
14
13
6
11
20
8
7
16
3
10
18
1
15

>  <PUBCHEM_MMFF94_PARTIAL_CHARGES>
17
1 -0.57
10 0.41
11 -0.15
12 -0.15
13 0.16
18 0.37
2 -0.73
22 0.15
23 0.15
24 0.15
25 0.4
26 0.4
3 -0.62
4 -0.9
5 0.3
7 0.09
8 0.54

>  <PUBCHEM_EFFECTIVE_ROTOR_COUNT>
4

>  <PUBCHEM_PHARMACOPHORE_FEATURES>
7
1 1 acceptor
1 2 donor
1 3 acceptor
1 4 cation
1 4 donor
1 9 hydrophobe
6 3 7 10 11 12 13 rings

>  <PUBCHEM_HEAVY_ATOM_COUNT>
13

>  <PUBCHEM_ATOM_DEF_STEREO_COUNT>
0

>  <PUBCHEM_ATOM_UDEF_STEREO_COUNT>
0

>  <PUBCHEM_BOND_DEF_STEREO_COUNT>
0

>  <PUBCHEM_BOND_UDEF_STEREO_COUNT>
0

>  <PUBCHEM_ISOTOPIC_ATOM_COUNT>
0

>  <PUBCHEM_COMPONENT_COUNT>
1

>  <PUBCHEM_CACTVS_TAUTO_COUNT>
5

>  <PUBCHEM_CONFORMER_ID>
00BB2E1900000011

>  <PUBCHEM_MMFF94_ENERGY>
35.1333

>  <PUBCHEM_FEATURE_SELFOVERLAP>
35.532

>  <PUBCHEM_SHAPE_FINGERPRINT>
10465860 71 18272658982042312996
11206711 2 18338783589998828325
12032990 46 18201437034084608751
12202030 40 15625646323533505759
12897270 3 18272644649546360066
14993402 34 17894914052953447924
15775835 57 17458631142013715604
16945 1 18337939169432157371
18186145 218 18335134327938610668
20279233 1 17489867146435761654
20645476 183 17967533514634656954
20671657 53 16415212148159152004
20828058 34 18408886230634565186
22802520 49 17774728571393528550
228727 97 18410576175684999162
23402539 116 18412536627041026148
23552423 10 18119517748490368131
23557571 272 17845931948265962208
23559900 14 18272929432628986184
2748010 2 17834096921021316427
369184 2 14562525163572175155
5262128 65 17987819504341301676
528716 315 18413109480651078727
57096353 35 18336536196610839191

>  <PUBCHEM_SHAPE_MULTIPOLES>
246.72
6.29
1.55
1.08
3.54
0.08
-0.26
0.41
-2.62
-0.67
0.27
0.79
0.05
-0.55

>  <PUBCHEM_SHAPE_SELFOVERLAP>
504.025

>  <PUBCHEM_SHAPE_VOLUME>
142.3

>  <PUBCHEM_COORDINATE_TYPE>
2
5
10

$$$$
