123260746
 OpenBabel01182520543D

 24 24  0  0  0  0  0  0  0  0999 V2000
    0.6052    2.0767   -0.8933 O   0  0  0  0  0  0  0  0  0  0  0  0
    2.2206   -0.9810   -1.3770 O   0  0  0  0  0  0  0  0  0  0  0  0
   -2.6296   -0.9613   -0.2725 N   0  0  0  0  0  0  0  0  0  0  0  0
   -2.6790    1.3781   -0.6441 N   0  0  0  0  0  0  0  0  0  0  0  0
   -0.0268    2.4042    1.2865 N   0  0  0  0  0  0  0  0  0  0  0  0
    3.6250    0.0442    0.1260 N   0  0  0  0  0  0  0  0  0  0  0  0
    0.0507   -0.7913    0.5029 C   0  0  0  0  0  0  0  0  0  0  0  0
   -0.6396    0.3539    0.1215 C   0  0  0  0  0  0  0  0  0  0  0  0
    1.4833   -0.7326    0.9214 C   0  0  0  0  0  0  0  0  0  0  0  0
   -0.5976   -2.0214    0.4971 C   0  0  0  0  0  0  0  0  0  0  0  0
   -1.9663    0.2165   -0.2541 C   0  0  0  0  0  0  0  0  0  0  0  0
   -1.9260   -2.0526    0.1047 C   0  0  0  0  0  0  0  0  0  0  0  0
    0.0265    1.6520    0.1192 C   0  0  0  0  0  0  0  0  0  0  0  0
    2.4535   -0.5855   -0.2382 C   0  0  0  0  0  0  0  0  0  0  0  0
    1.6288    0.0771    1.6466 H   0  0  0  0  0  0  0  0  0  0  0  0
    1.7658   -1.6507    1.4534 H   0  0  0  0  0  0  0  0  0  0  0  0
   -0.0927   -2.9371    0.7855 H   0  0  0  0  0  0  0  0  0  0  0  0
   -2.4768   -2.9871    0.0821 H   0  0  0  0  0  0  0  0  0  0  0  0
   -2.4323    2.2637   -0.2199 H   0  0  0  0  0  0  0  0  0  0  0  0
   -3.6448    1.2435   -0.9182 H   0  0  0  0  0  0  0  0  0  0  0  0
   -0.5020    2.0730    2.1201 H   0  0  0  0  0  0  0  0  0  0  0  0
    0.4137    3.3165    1.3400 H   0  0  0  0  0  0  0  0  0  0  0  0
    3.8030    0.3596    1.0741 H   0  0  0  0  0  0  0  0  0  0  0  0
    4.3602    0.2090   -0.5535 H   0  0  0  0  0  0  0  0  0  0  0  0
  1 13  2  0  0  0  0
  2 14  2  0  0  0  0
  3 11  2  0  0  0  0
  3 12  1  0  0  0  0
  4 11  1  0  0  0  0
  4 19  1  0  0  0  0
  4 20  1  0  0  0  0
  5 13  1  0  0  0  0
  5 21  1  0  0  0  0
  5 22  1  0  0  0  0
  6 14  1  0  0  0  0
  6 23  1  0  0  0  0
  6 24  1  0  0  0  0
  7  8  2  0  0  0  0
  7  9  1  0  0  0  0
  7 10  1  0  0  0  0
  8 11  1  0  0  0  0
  8 13  1  0  0  0  0
  9 14  1  0  0  0  0
  9 15  1  0  0  0  0
  9 16  1  0  0  0  0
 10 12  2  0  0  0  0
 10 17  1  0  0  0  0
 12 18  1  0  0  0  0
M  END
>  <PUBCHEM_COMPOUND_CID>
123260746

>  <PUBCHEM_CONFORMER_RMSD>
0.6

>  <PUBCHEM_CONFORMER_DIVERSEORDER>
1
8
16
14
17
19
11
3
15
18
2
5
6
12
4
13
7
9
10

>  <PUBCHEM_MMFF94_PARTIAL_CHARGES>
22
1 -0.57
10 -0.15
11 0.41
12 0.16
13 0.54
14 0.57
17 0.15
18 0.15
19 0.4
2 -0.57
20 0.4
21 0.37
22 0.37
23 0.37
24 0.37
3 -0.62
4 -0.9
5 -0.8
6 -0.8
7 -0.14
8 0.09
9 0.2

>  <PUBCHEM_EFFECTIVE_ROTOR_COUNT>
3

>  <PUBCHEM_PHARMACOPHORE_FEATURES>
7
1 1 acceptor
1 2 acceptor
1 4 donor
1 5 donor
1 6 donor
3 3 4 11 cation
6 3 7 8 10 11 12 rings

>  <PUBCHEM_HEAVY_ATOM_COUNT>
14

>  <PUBCHEM_ATOM_DEF_STEREO_COUNT>
0

>  <PUBCHEM_ATOM_UDEF_STEREO_COUNT>
0

>  <PUBCHEM_BOND_DEF_STEREO_COUNT>
0

>  <PUBCHEM_BOND_UDEF_STEREO_COUNT>
0

>  <PUBCHEM_ISOTOPIC_ATOM_COUNT>
0

>  <PUBCHEM_COMPONENT_COUNT>
1

>  <PUBCHEM_CACTVS_TAUTO_COUNT>
53

>  <PUBCHEM_CONFORMER_ID>
0758CF4A00000001

>  <PUBCHEM_MMFF94_ENERGY>
48.7745

>  <PUBCHEM_FEATURE_SELFOVERLAP>
35.522

>  <PUBCHEM_SHAPE_FINGERPRINT>
1 1 17260189315973703792
11206711 2 18262222387912640871
12423570 1 17770199871840494187
12524768 44 18343303643445657330
12716758 59 18337676299921820766
13380535 220 18261110828569056165
14128692 85 18337111288288768551
14614273 12 17973436599047759692
15775835 57 17822294522563895830
161256 15 18048598415280117035
16945 1 18186524336296803371
17775402 16 18190729839371156893
193761 8 18119809368184651769
21501502 16 18121507018353744959
22802520 49 18056494849966497406
23402539 116 18340192008717897894
23552423 10 17899129696387921835
23557571 272 18342185479223288350
23559900 14 18340481172229497770
2748010 2 17902221553466782987
353137 74 18193555554068327240
4663303 62 17842269552000587848
7364860 26 17840023275498851945
81228 2 18268162984575374904

>  <PUBCHEM_SHAPE_MULTIPOLES>
256.45
3.87
2.42
0.98
1.68
0.74
0
-0.83
-0.82
-0.81
0.28
0.31
0.16
0.25

>  <PUBCHEM_SHAPE_SELFOVERLAP>
539.345

>  <PUBCHEM_SHAPE_VOLUME>
143.3

>  <PUBCHEM_COORDINATE_TYPE>
2
5
10

$$$$
