123302989
 OpenBabel01182520543D

 37 37  0  0  0  0  0  0  0  0999 V2000
    2.3041    1.4845    1.5927 O   0  0  0  0  0  0  0  0  0  0  0  0
    3.0660    0.7412   -0.4685 N   0  0  0  0  0  0  0  0  0  0  0  0
    5.7734   -2.6057    0.1031 N   0  0  0  0  0  0  0  0  0  0  0  0
   -3.8601   -0.3956    0.1982 N   0  0  0  0  0  0  0  0  0  0  0  0
   -1.5623    0.1229    0.7395 N   0  0  0  0  0  0  0  0  0  0  0  0
   -3.2314   -0.1715   -0.8609 N   0  0  0  0  0  0  0  0  0  0  0  0
    5.1539   -0.2510    0.3891 C   0  0  0  0  0  0  0  0  0  0  0  0
    4.4648    0.9641   -0.2250 C   0  0  0  0  0  0  0  0  0  0  0  0
    5.0874   -1.4793   -0.5201 C   0  0  0  0  0  0  0  0  0  0  0  0
    2.0852    1.0242    0.4753 C   0  0  0  0  0  0  0  0  0  0  0  0
    0.6877    0.7124    0.0797 C   0  0  0  0  0  0  0  0  0  0  0  0
   -5.2640   -0.7161   -0.0565 C   0  0  0  0  0  0  0  0  0  0  0  0
    0.3042    0.7099   -1.2569 C   0  0  0  0  0  0  0  0  0  0  0  0
   -6.0700    0.5742   -0.0730 C   0  0  0  0  0  0  0  0  0  0  0  0
   -5.7549   -1.6738    1.0188 C   0  0  0  0  0  0  0  0  0  0  0  0
   -0.2747    0.4150    1.0310 C   0  0  0  0  0  0  0  0  0  0  0  0
   -1.8980    0.1302   -0.5701 C   0  0  0  0  0  0  0  0  0  0  0  0
   -1.0114    0.4143   -1.5964 C   0  0  0  0  0  0  0  0  0  0  0  0
    6.2022    0.0035    0.5896 H   0  0  0  0  0  0  0  0  0  0  0  0
    4.6891   -0.4832    1.3560 H   0  0  0  0  0  0  0  0  0  0  0  0
    4.9260    1.2190   -1.1852 H   0  0  0  0  0  0  0  0  0  0  0  0
    4.5806    1.8265    0.4407 H   0  0  0  0  0  0  0  0  0  0  0  0
    4.0480   -1.7635   -0.7150 H   0  0  0  0  0  0  0  0  0  0  0  0
    5.5608   -1.2602   -1.4830 H   0  0  0  0  0  0  0  0  0  0  0  0
    2.8195    0.3087   -1.3523 H   0  0  0  0  0  0  0  0  0  0  0  0
   -5.3775   -1.2165   -1.0279 H   0  0  0  0  0  0  0  0  0  0  0  0
    5.3208   -2.8374    0.9864 H   0  0  0  0  0  0  0  0  0  0  0  0
    5.6795   -3.4288   -0.4905 H   0  0  0  0  0  0  0  0  0  0  0  0
    0.9928    0.9594   -2.0584 H   0  0  0  0  0  0  0  0  0  0  0  0
   -5.9772    1.1126    0.8768 H   0  0  0  0  0  0  0  0  0  0  0  0
   -5.7217    1.2446   -0.8662 H   0  0  0  0  0  0  0  0  0  0  0  0
   -7.1316    0.3697   -0.2465 H   0  0  0  0  0  0  0  0  0  0  0  0
   -5.1640   -2.5961    1.0138 H   0  0  0  0  0  0  0  0  0  0  0  0
   -6.8043   -1.9407    0.8573 H   0  0  0  0  0  0  0  0  0  0  0  0
   -5.6642   -1.2308    2.0169 H   0  0  0  0  0  0  0  0  0  0  0  0
   -0.0418    0.3956    2.0912 H   0  0  0  0  0  0  0  0  0  0  0  0
   -1.3262    0.4149   -2.6345 H   0  0  0  0  0  0  0  0  0  0  0  0
  1 10  2  0  0  0  0
  2  8  1  0  0  0  0
  2 10  1  0  0  0  0
  2 25  1  0  0  0  0
  3  9  1  0  0  0  0
  3 27  1  0  0  0  0
  3 28  1  0  0  0  0
  4  6  2  0  0  0  0
  4 12  1  0  0  0  0
  5 16  1  0  0  0  0
  5 17  2  0  0  0  0
  6 17  1  0  0  0  0
  7  8  1  0  0  0  0
  7  9  1  0  0  0  0
  7 19  1  0  0  0  0
  7 20  1  0  0  0  0
  8 21  1  0  0  0  0
  8 22  1  0  0  0  0
  9 23  1  0  0  0  0
  9 24  1  0  0  0  0
 10 11  1  0  0  0  0
 11 13  1  0  0  0  0
 11 16  2  0  0  0  0
 12 14  1  0  0  0  0
 12 15  1  0  0  0  0
 12 26  1  0  0  0  0
 13 18  2  0  0  0  0
 13 29  1  0  0  0  0
 14 30  1  0  0  0  0
 14 31  1  0  0  0  0
 14 32  1  0  0  0  0
 15 33  1  0  0  0  0
 15 34  1  0  0  0  0
 15 35  1  0  0  0  0
 16 36  1  0  0  0  0
 17 18  1  0  0  0  0
 18 37  1  0  0  0  0
M  END
>  <PUBCHEM_COMPOUND_CID>
123302989

>  <PUBCHEM_CONFORMER_RMSD>
0.8

>  <PUBCHEM_CONFORMER_DIVERSEORDER>
2
61
16
23
19
70
35
17
7
50
15
40
44
46
26
39
57
1
3
8
55
51
13
45
53
64
22
38
6
33
30
62
29
4
43
21
48
12
58
36
54
41
18
10
9
42
28
37
25
31
5
20
52
47
11
71
66
24
32
65
67
56
34
68
60
49
63
14
59
27
69

>  <PUBCHEM_MMFF94_PARTIAL_CHARGES>
21
1 -0.57
10 0.54
11 0.09
12 0.25
13 -0.15
16 0.16
17 0.49
18 -0.15
2 -0.73
25 0.37
27 0.36
28 0.36
29 0.15
3 -0.99
36 0.15
37 0.15
4 -0.25
5 -0.62
6 -0.18
8 0.3
9 0.27

>  <PUBCHEM_EFFECTIVE_ROTOR_COUNT>
7

>  <PUBCHEM_PHARMACOPHORE_FEATURES>
7
1 1 acceptor
1 2 donor
1 3 cation
1 3 donor
3 12 14 15 hydrophobe
3 5 6 17 cation
6 5 11 13 16 17 18 rings

>  <PUBCHEM_HEAVY_ATOM_COUNT>
18

>  <PUBCHEM_ATOM_DEF_STEREO_COUNT>
0

>  <PUBCHEM_ATOM_UDEF_STEREO_COUNT>
0

>  <PUBCHEM_BOND_DEF_STEREO_COUNT>
0

>  <PUBCHEM_BOND_UDEF_STEREO_COUNT>
0

>  <PUBCHEM_ISOTOPIC_ATOM_COUNT>
0

>  <PUBCHEM_COMPONENT_COUNT>
1

>  <PUBCHEM_CACTVS_TAUTO_COUNT>
27

>  <PUBCHEM_CONFORMER_ID>
0759744D00000002

>  <PUBCHEM_MMFF94_ENERGY>
26.4245

>  <PUBCHEM_FEATURE_SELFOVERLAP>
35.521

>  <PUBCHEM_SHAPE_FINGERPRINT>
11128504 68 15213022656782346750
11401426 45 14189578550635705709
117890 112 11600010950534812194
13533116 47 18344145895639081578
13955234 65 18268988855727342848
14251764 18 16630522994349824277
14455015 7 18408887342920396498
14528608 73 12685095890880635030
14774955 27 7997962480041028154
15475509 8 17241050894547914805
15501527 24 14634869759977660519
16079462 125 12031793530755247051
17834072 33 11386369257284002289
18222031 100 16950555636365360829
19784866 240 18338804425054031638
20621476 21 17677348211314964555
20645477 70 18260546715391562946
21267235 1 16733271248686829691
21637258 2 18409440392995358006
21641784 216 14056994984218857479
220451 1 18131074890991844334
2297311 6 17530965770095558141
23035841 295 17095520704095690321
23402539 116 17704349992321265397
23503953 91 15051726530028154660
23536379 177 18410013234506407833
23559900 14 18334573585482367481
33382 64 18408888421384624842
3472631 163 12036031074871626130
34797466 226 17167869685815662134
4072396 5 16415481536465090596
4463277 17 16370720448590492189
465052 167 18343588451570184574
4990 188 17603581928893668724
5104073 3 17917992737859857280
5374978 207 16056879139639981976
59755656 215 17968371261159422231

>  <PUBCHEM_SHAPE_MULTIPOLES>
339.66
14.94
1.59
1.21
4.28
1.09
-0.01
8.32
0.95
-1.87
0.13
0.05
-0.26
1.07

>  <PUBCHEM_SHAPE_SELFOVERLAP>
681.696

>  <PUBCHEM_SHAPE_VOLUME>
198.8

>  <PUBCHEM_COORDINATE_TYPE>
2
5
10

$$$$
