123486589
 OpenBabel01182520543D

 31 31  0  0  0  0  0  0  0  0999 V2000
    2.3812   -1.8761    0.4870 O   0  0  0  0  0  0  0  0  0  0  0  0
   -4.3333   -1.1160   -0.9058 O   0  0  0  0  0  0  0  0  0  0  0  0
    3.0155    0.3552    0.4995 N   0  0  0  0  0  0  0  0  0  0  0  0
   -1.5995   -0.8203   -0.2636 N   0  0  0  0  0  0  0  0  0  0  0  0
   -3.3314    0.7362    0.1518 N   0  0  0  0  0  0  0  0  0  0  0  0
    4.4338    0.1307    0.5425 C   0  0  0  0  0  0  0  0  0  0  0  0
    5.0489    0.0359   -0.8486 C   0  0  0  0  0  0  0  0  0  0  0  0
    0.6614   -0.2844    0.4043 C   0  0  0  0  0  0  0  0  0  0  0  0
    2.0908   -0.6829    0.4750 C   0  0  0  0  0  0  0  0  0  0  0  0
    4.8626    1.3088   -1.6621 C   0  0  0  0  0  0  0  0  0  0  0  0
    0.2315    0.9402    0.9035 C   0  0  0  0  0  0  0  0  0  0  0  0
   -1.9801    0.3784    0.2324 C   0  0  0  0  0  0  0  0  0  0  0  0
   -0.2852   -1.1213   -0.1644 C   0  0  0  0  0  0  0  0  0  0  0  0
   -1.1128    1.2854    0.8197 C   0  0  0  0  0  0  0  0  0  0  0  0
   -4.3862   -0.0036   -0.3913 C   0  0  0  0  0  0  0  0  0  0  0  0
   -5.6970    0.7340   -0.2798 C   0  0  0  0  0  0  0  0  0  0  0  0
    4.6356   -0.7922    1.0973 H   0  0  0  0  0  0  0  0  0  0  0  0
    4.8786    0.9611    1.1012 H   0  0  0  0  0  0  0  0  0  0  0  0
    6.1209   -0.1703   -0.7504 H   0  0  0  0  0  0  0  0  0  0  0  0
    4.6076   -0.8046   -1.3973 H   0  0  0  0  0  0  0  0  0  0  0  0
    2.7078    1.3192    0.4291 H   0  0  0  0  0  0  0  0  0  0  0  0
    3.8048    1.5065   -1.8615 H   0  0  0  0  0  0  0  0  0  0  0  0
    5.2834    2.1736   -1.1393 H   0  0  0  0  0  0  0  0  0  0  0  0
    5.3716    1.2158   -2.6268 H   0  0  0  0  0  0  0  0  0  0  0  0
    0.9074    1.6386    1.3874 H   0  0  0  0  0  0  0  0  0  0  0  0
   -0.0167   -2.0890   -0.5770 H   0  0  0  0  0  0  0  0  0  0  0  0
   -1.4541    2.2376    1.2130 H   0  0  0  0  0  0  0  0  0  0  0  0
   -3.5662    1.6479    0.5391 H   0  0  0  0  0  0  0  0  0  0  0  0
   -5.6291    1.6930   -0.8013 H   0  0  0  0  0  0  0  0  0  0  0  0
   -5.9358    0.9064    0.7734 H   0  0  0  0  0  0  0  0  0  0  0  0
   -6.4959    0.1405   -0.7328 H   0  0  0  0  0  0  0  0  0  0  0  0
  1  9  2  0  0  0  0
  2 15  2  0  0  0  0
  3  6  1  0  0  0  0
  3  9  1  0  0  0  0
  3 21  1  0  0  0  0
  4 12  2  0  0  0  0
  4 13  1  0  0  0  0
  5 12  1  0  0  0  0
  5 15  1  0  0  0  0
  5 28  1  0  0  0  0
  6  7  1  0  0  0  0
  6 17  1  0  0  0  0
  6 18  1  0  0  0  0
  7 10  1  0  0  0  0
  7 19  1  0  0  0  0
  7 20  1  0  0  0  0
  8  9  1  0  0  0  0
  8 11  1  0  0  0  0
  8 13  2  0  0  0  0
 10 22  1  0  0  0  0
 10 23  1  0  0  0  0
 10 24  1  0  0  0  0
 11 14  2  0  0  0  0
 11 25  1  0  0  0  0
 12 14  1  0  0  0  0
 13 26  1  0  0  0  0
 14 27  1  0  0  0  0
 15 16  1  0  0  0  0
 16 29  1  0  0  0  0
 16 30  1  0  0  0  0
 16 31  1  0  0  0  0
M  END
>  <PUBCHEM_COMPOUND_CID>
123486589

>  <PUBCHEM_CONFORMER_RMSD>
0.8

>  <PUBCHEM_CONFORMER_DIVERSEORDER>
2
3
15
19
8
14
20
6
7
17
16
4
11
18
12
13
5
9
1
10

>  <PUBCHEM_MMFF94_PARTIAL_CHARGES>
19
1 -0.57
11 -0.15
12 0.43
13 0.16
14 -0.15
15 0.57
16 0.06
2 -0.57
21 0.37
25 0.15
26 0.15
27 0.15
28 0.37
3 -0.73
4 -0.62
5 -0.55
6 0.3
8 0.09
9 0.54

>  <PUBCHEM_EFFECTIVE_ROTOR_COUNT>
6

>  <PUBCHEM_PHARMACOPHORE_FEATURES>
6
1 1 acceptor
1 10 hydrophobe
1 2 acceptor
1 3 donor
1 5 donor
6 4 8 11 12 13 14 rings

>  <PUBCHEM_HEAVY_ATOM_COUNT>
16

>  <PUBCHEM_ATOM_DEF_STEREO_COUNT>
0

>  <PUBCHEM_ATOM_UDEF_STEREO_COUNT>
0

>  <PUBCHEM_BOND_DEF_STEREO_COUNT>
0

>  <PUBCHEM_BOND_UDEF_STEREO_COUNT>
0

>  <PUBCHEM_ISOTOPIC_ATOM_COUNT>
0

>  <PUBCHEM_COMPONENT_COUNT>
1

>  <PUBCHEM_CACTVS_TAUTO_COUNT>
20

>  <PUBCHEM_CONFORMER_ID>
075C417D00000002

>  <PUBCHEM_MMFF94_ENERGY>
29.9141

>  <PUBCHEM_FEATURE_SELFOVERLAP>
30.446

>  <PUBCHEM_SHAPE_FINGERPRINT>
11128504 68 18341618144008089716
11287383 113 17167867473701847497
117890 112 16081085965587398493
12119455 92 15791727503443205514
12616999 72 18410008823759663322
12670543 26 17917433081777229069
12714333 28 17967532376220137372
13533116 47 14996271484429246600
13675066 3 12468638313484937320
13760787 19 18410288108318955051
14251764 18 18272089371649565993
14455015 7 14979963579099128020
14528608 73 18335702775513461500
14774955 27 17386294302293040012
14911166 2 18202281411516737105
14993402 34 18201998832854672761
15048467 5 18040714758084837613
15242433 33 18341326721855394731
15342168 16 17168438176551188958
15501527 24 18412263964630403092
17834072 33 18334575771588806239
17834076 25 18187082845200974825
20645477 56 14851606587282599290
20645477 70 18264202517638095890
21267235 1 18060136587956019375
212916 134 13045940248282343880
21618674 25 15285359535485100744
21637258 2 14405182833292049156
23035841 295 17988926656662746687
23402539 116 17989197153476098213
23402655 69 18340198601497828865
23532345 1 17748829592407987610
23557571 272 17418100871028597977
23559900 14 17560510806943097104
2916195 48 15357694206263194285
33382 64 14764636312879315726
449060 50 17313105245690387370
465052 167 11600003271297070732
474 4 17676777552074048556
4990 188 17275107219494019508
537710 114 18412543202150887024
542803 24 17748543736242764437
57096353 35 18341889684334801062
68521 5 17917711262720083769

>  <PUBCHEM_SHAPE_MULTIPOLES>
302.59
11.83
1.35
1.06
1.91
0.19
-0.21
-2.51
-4.62
-0.35
-0.05
-0.86
-0.26
-1.09

>  <PUBCHEM_SHAPE_SELFOVERLAP>
613.066

>  <PUBCHEM_SHAPE_VOLUME>
175

>  <PUBCHEM_COORDINATE_TYPE>
2
5
10

$$$$
