123621053
 OpenBabel01182520543D

 28 28  0  0  0  0  0  0  0  0999 V2000
    1.9389   -1.7617    0.0053 O   0  0  0  0  0  0  0  0  0  0  0  0
   -1.6631    2.5032   -1.1166 O   0  0  0  0  0  0  0  0  0  0  0  0
    0.5477    0.1295   -0.0239 N   0  0  0  0  0  0  0  0  0  0  0  0
   -0.8491   -1.7790    0.0131 N   0  0  0  0  0  0  0  0  0  0  0  0
   -1.6400    2.5373    1.1761 N   0  0  0  0  0  0  0  0  0  0  0  0
    2.9257    0.4381   -0.0063 C   0  0  0  0  0  0  0  0  0  0  0  0
    4.3012   -0.2257    0.0031 C   0  0  0  0  0  0  0  0  0  0  0  0
    1.7640   -0.5480   -0.0157 C   0  0  0  0  0  0  0  0  0  0  0  0
   -0.7519   -0.4308   -0.0101 C   0  0  0  0  0  0  0  0  0  0  0  0
    5.4379    0.7868    0.0119 C   0  0  0  0  0  0  0  0  0  0  0  0
   -1.8412    0.4253   -0.0219 C   0  0  0  0  0  0  0  0  0  0  0  0
   -3.1123   -0.1382   -0.0092 C   0  0  0  0  0  0  0  0  0  0  0  0
   -3.2530   -1.5215    0.0147 C   0  0  0  0  0  0  0  0  0  0  0  0
   -1.7043    1.8753   -0.0453 C   0  0  0  0  0  0  0  0  0  0  0  0
   -2.1005   -2.2906    0.0248 C   0  0  0  0  0  0  0  0  0  0  0  0
    2.8336    1.0784   -0.8923 H   0  0  0  0  0  0  0  0  0  0  0  0
    2.8204    1.0771    0.8791 H   0  0  0  0  0  0  0  0  0  0  0  0
    4.3918   -0.8742    0.8828 H   0  0  0  0  0  0  0  0  0  0  0  0
    4.4041   -0.8735   -0.8757 H   0  0  0  0  0  0  0  0  0  0  0  0
    0.5939    1.1452   -0.0396 H   0  0  0  0  0  0  0  0  0  0  0  0
    5.3981    1.4264   -0.8755 H   0  0  0  0  0  0  0  0  0  0  0  0
    6.4040    0.2726    0.0186 H   0  0  0  0  0  0  0  0  0  0  0  0
    5.3853    1.4255    0.8993 H   0  0  0  0  0  0  0  0  0  0  0  0
   -3.9998    0.4890   -0.0176 H   0  0  0  0  0  0  0  0  0  0  0  0
   -4.2337   -1.9830    0.0250 H   0  0  0  0  0  0  0  0  0  0  0  0
   -2.1559   -3.3740    0.0433 H   0  0  0  0  0  0  0  0  0  0  0  0
   -1.6791    2.0414    2.0609 H   0  0  0  0  0  0  0  0  0  0  0  0
   -1.5507    3.5471    1.2183 H   0  0  0  0  0  0  0  0  0  0  0  0
  1  8  2  0  0  0  0
  2 14  2  0  0  0  0
  3  8  1  0  0  0  0
  3  9  1  0  0  0  0
  3 20  1  0  0  0  0
  4  9  1  0  0  0  0
  4 15  2  0  0  0  0
  5 14  1  0  0  0  0
  5 27  1  0  0  0  0
  5 28  1  0  0  0  0
  6  7  1  0  0  0  0
  6  8  1  0  0  0  0
  6 16  1  0  0  0  0
  6 17  1  0  0  0  0
  7 10  1  0  0  0  0
  7 18  1  0  0  0  0
  7 19  1  0  0  0  0
  9 11  2  0  0  0  0
 10 21  1  0  0  0  0
 10 22  1  0  0  0  0
 10 23  1  0  0  0  0
 11 12  1  0  0  0  0
 11 14  1  0  0  0  0
 12 13  2  0  0  0  0
 12 24  1  0  0  0  0
 13 15  1  0  0  0  0
 13 25  1  0  0  0  0
 15 26  1  0  0  0  0
M  END
>  <PUBCHEM_COMPOUND_CID>
123621053

>  <PUBCHEM_CONFORMER_RMSD>
0.6

>  <PUBCHEM_CONFORMER_DIVERSEORDER>
2
40
63
37
38
64
43
51
48
65
59
17
46
44
66
31
36
53
54
15
55
61
52
62
60
34
41
56
50
9
22
16
57
58
12
47
45
49
28
30
32
18
4
19
39
25
10
20
3
42
24
21
35
13
33
6
14
23
11
26
29
1
27
5
7
8

>  <PUBCHEM_MMFF94_PARTIAL_CHARGES>
19
1 -0.57
11 0.09
12 -0.15
13 -0.15
14 0.54
15 0.16
2 -0.57
20 0.37
24 0.15
25 0.15
26 0.15
27 0.37
28 0.37
3 -0.55
4 -0.62
5 -0.8
6 0.06
8 0.57
9 0.43

>  <PUBCHEM_EFFECTIVE_ROTOR_COUNT>
5

>  <PUBCHEM_PHARMACOPHORE_FEATURES>
7
1 1 acceptor
1 10 hydrophobe
1 2 acceptor
1 3 donor
1 4 acceptor
1 5 donor
6 4 9 11 12 13 15 rings

>  <PUBCHEM_HEAVY_ATOM_COUNT>
15

>  <PUBCHEM_ATOM_DEF_STEREO_COUNT>
0

>  <PUBCHEM_ATOM_UDEF_STEREO_COUNT>
0

>  <PUBCHEM_BOND_DEF_STEREO_COUNT>
0

>  <PUBCHEM_BOND_UDEF_STEREO_COUNT>
0

>  <PUBCHEM_ISOTOPIC_ATOM_COUNT>
0

>  <PUBCHEM_COMPONENT_COUNT>
1

>  <PUBCHEM_CACTVS_TAUTO_COUNT>
73

>  <PUBCHEM_CONFORMER_ID>
075E4EBD00000002

>  <PUBCHEM_MMFF94_ENERGY>
37.9755

>  <PUBCHEM_FEATURE_SELFOVERLAP>
35.525

>  <PUBCHEM_SHAPE_FINGERPRINT>
10608611 8 18412543176634056790
12390115 104 18057624078473092049
13024252 1 17385723608392257611
13296909 8 18260265231102426564
13897977 58 18409453617584660908
14614273 12 18262516975308260173
15442244 35 18192991513747523082
1741750 31 18270681935660472464
17802600 8 18411133680042200352
19591789 44 15596965897909895370
1986462 14 18412832361198318334
200 152 18338789113168775351
20510252 161 18341333305760529035
20645477 56 18338522932559984484
20645477 70 17059787628940253198
20871998 184 18272373083365403535
21029758 11 18270392923475073551
21029758 27 18189341341370061711
21339142 51 18262512714764122887
21501502 16 18338513015512295954
2297311 6 18270695263160178902
2306618 200 18201727244781953666
23402539 116 18339635737000876063
23557571 272 18343027713171304462
23559900 14 17984137059938748518
2748010 2 18049450240475784407
3312278 4 18335701680180951235
4214541 1 18410573955872624614
5104073 3 18410573947219608314
573450 72 18188477013656276738
58051976 378 18413389847832383710
7364860 26 17621319469616503571
81228 2 18336841835236840379

>  <PUBCHEM_SHAPE_MULTIPOLES>
282.01
7.8
2.52
0.73
12.84
0.94
0.01
-0.15
0.03
-2.47
0.05
-0.21
0.36
0.01

>  <PUBCHEM_SHAPE_SELFOVERLAP>
576.292

>  <PUBCHEM_SHAPE_VOLUME>
161.9

>  <PUBCHEM_COORDINATE_TYPE>
2
5
10

$$$$
