123783097
 OpenBabel01182520543D

 21 21  0  0  0  0  0  0  0  0999 V2000
   -3.8704   -1.0971    0.2227 O   0  0  0  0  0  0  0  0  0  0  0  0
    2.5926   -1.1370   -0.1571 N   0  0  0  0  0  0  0  0  0  0  0  0
    4.4476    0.3563   -0.0809 N   0  0  0  0  0  0  0  0  0  0  0  0
   -4.3136    1.1055   -0.2718 N   0  0  0  0  0  0  0  0  0  0  0  0
    0.3509   -0.2608    0.0720 C   0  0  0  0  0  0  0  0  0  0  0  0
    0.8594    1.0271    0.1987 C   0  0  0  0  0  0  0  0  0  0  0  0
    2.2335    1.2342    0.1476 C   0  0  0  0  0  0  0  0  0  0  0  0
    1.2515   -1.2992   -0.1026 C   0  0  0  0  0  0  0  0  0  0  0  0
   -1.0780   -0.5105    0.1216 C   0  0  0  0  0  0  0  0  0  0  0  0
    3.0499    0.1288   -0.0302 C   0  0  0  0  0  0  0  0  0  0  0  0
   -2.0429    0.4143   -0.0939 C   0  0  0  0  0  0  0  0  0  0  0  0
   -3.4803    0.0383   -0.0260 C   0  0  0  0  0  0  0  0  0  0  0  0
    0.2231    1.8930    0.3560 H   0  0  0  0  0  0  0  0  0  0  0  0
   -1.3641   -1.5374    0.3391 H   0  0  0  0  0  0  0  0  0  0  0  0
    2.6382    2.2359    0.2501 H   0  0  0  0  0  0  0  0  0  0  0  0
    0.9213   -2.3286   -0.2091 H   0  0  0  0  0  0  0  0  0  0  0  0
   -1.8125    1.4454   -0.3385 H   0  0  0  0  0  0  0  0  0  0  0  0
    4.7780    1.2538   -0.4138 H   0  0  0  0  0  0  0  0  0  0  0  0
    5.0400   -0.4534   -0.2174 H   0  0  0  0  0  0  0  0  0  0  0  0
   -3.9714    2.0394   -0.4754 H   0  0  0  0  0  0  0  0  0  0  0  0
   -5.3216    0.9894   -0.2565 H   0  0  0  0  0  0  0  0  0  0  0  0
  1 12  2  0  0  0  0
  2  8  1  0  0  0  0
  2 10  2  0  0  0  0
  3 10  1  0  0  0  0
  3 18  1  0  0  0  0
  3 19  1  0  0  0  0
  4 12  1  0  0  0  0
  4 20  1  0  0  0  0
  4 21  1  0  0  0  0
  5  6  1  0  0  0  0
  5  8  2  0  0  0  0
  5  9  1  0  0  0  0
  6  7  2  0  0  0  0
  6 13  1  0  0  0  0
  7 10  1  0  0  0  0
  7 15  1  0  0  0  0
  8 16  1  0  0  0  0
  9 11  2  3  0  0  0
  9 14  1  0  0  0  0
 11 12  1  0  0  0  0
 11 17  1  0  0  0  0
M  END
>  <PUBCHEM_COMPOUND_CID>
123783097

>  <PUBCHEM_CONFORMER_RMSD>
0.6

>  <PUBCHEM_CONFORMER_DIVERSEORDER>
1
4
5
3
6
2

>  <PUBCHEM_MMFF94_PARTIAL_CHARGES>
21
1 -0.57
10 0.41
11 -0.14
12 0.62
13 0.15
14 0.15
15 0.15
16 0.15
17 0.15
18 0.4
19 0.4
2 -0.62
20 0.37
21 0.37
3 -0.9
4 -0.8
5 0.03
6 -0.15
7 -0.15
8 0.16
9 -0.18

>  <PUBCHEM_EFFECTIVE_ROTOR_COUNT>
2

>  <PUBCHEM_PHARMACOPHORE_FEATURES>
5
1 1 acceptor
1 3 donor
1 4 donor
3 2 3 10 cation
6 2 5 6 7 8 10 rings

>  <PUBCHEM_HEAVY_ATOM_COUNT>
12

>  <PUBCHEM_ATOM_DEF_STEREO_COUNT>
0

>  <PUBCHEM_ATOM_UDEF_STEREO_COUNT>
0

>  <PUBCHEM_BOND_DEF_STEREO_COUNT>
0

>  <PUBCHEM_BOND_UDEF_STEREO_COUNT>
1

>  <PUBCHEM_ISOTOPIC_ATOM_COUNT>
0

>  <PUBCHEM_COMPONENT_COUNT>
1

>  <PUBCHEM_CACTVS_TAUTO_COUNT>
11

>  <PUBCHEM_CONFORMER_ID>
0760C7B900000001

>  <PUBCHEM_MMFF94_ENERGY>
37.18

>  <PUBCHEM_FEATURE_SELFOVERLAP>
25.372

>  <PUBCHEM_SHAPE_FINGERPRINT>
10219947 1 17917994953598757630
10608611 8 18409163337877689497
11062470 55 18410856551060410984
11401426 45 18273208708060182200
11471102 20 18412540985815679012
12932764 1 17346588690855774537
13380535 76 18410576210103324754
13922767 16 18343015610169923960
14144814 61 18272091573923050043
14325111 11 18410573998421429435
14415576 193 18408608084236631036
14911166 2 18342185479376035444
14993402 34 17346598573338236932
18186145 218 18411706448069054387
190213 19 17704355467834504635
200 152 18060413621472101301
20201158 50 18409451375210825315
20279233 1 18187088351660479651
20606313 2 18412262826712054292
20645477 56 18187363195656227621
20645477 70 18270961228778388463
21119208 17 17775284958499784605
22485316 2 18261108556515597091
23402539 116 17748818626966012796
23402655 69 18342735191797353133
4990 188 18059585693374236126

>  <PUBCHEM_SHAPE_MULTIPOLES>
226.14
7.78
1.28
0.61
3.75
0.05
0.01
-0.87
-0.37
-0.12
0
0.02
-0.01
0.25

>  <PUBCHEM_SHAPE_SELFOVERLAP>
468.866

>  <PUBCHEM_SHAPE_VOLUME>
128.2

>  <PUBCHEM_COORDINATE_TYPE>
2
5
10

$$$$
