123711792
 OpenBabel01182520543D

 22 22  0  0  0  0  0  0  0  0999 V2000
    3.3787    1.3402    0.2515 O   0  0  0  0  0  0  0  0  0  0  0  0
   -3.0663    1.0722   -0.1938 N   0  0  0  0  0  0  0  0  0  0  0  0
   -4.8506   -0.5043   -0.1041 N   0  0  0  0  0  0  0  0  0  0  0  0
    3.8894   -0.8944   -0.1971 N   0  0  0  0  0  0  0  0  0  0  0  0
   -0.7891    0.3069    0.0776 C   0  0  0  0  0  0  0  0  0  0  0  0
   -1.2386   -1.0004    0.2273 C   0  0  0  0  0  0  0  0  0  0  0  0
   -2.6008   -1.2725    0.1666 C   0  0  0  0  0  0  0  0  0  0  0  0
   -1.7349    1.2982   -0.1290 C   0  0  0  0  0  0  0  0  0  0  0  0
    0.6260    0.6241    0.1366 C   0  0  0  0  0  0  0  0  0  0  0  0
   -3.4656   -0.2106   -0.0440 C   0  0  0  0  0  0  0  0  0  0  0  0
    1.6351   -0.2588   -0.0487 C   0  0  0  0  0  0  0  0  0  0  0  0
    3.0570    0.1791    0.0242 C   0  0  0  0  0  0  0  0  0  0  0  0
    5.1598   -0.6796   -0.1671 C   0  0  0  0  0  0  0  0  0  0  0  0
   -0.5644   -1.8320    0.4099 H   0  0  0  0  0  0  0  0  0  0  0  0
   -2.9596   -2.2896    0.2868 H   0  0  0  0  0  0  0  0  0  0  0  0
   -1.4519    2.3393   -0.2546 H   0  0  0  0  0  0  0  0  0  0  0  0
    0.8615    1.6678    0.3336 H   0  0  0  0  0  0  0  0  0  0  0  0
    1.4579   -1.3055   -0.2715 H   0  0  0  0  0  0  0  0  0  0  0  0
   -5.1351   -1.4231   -0.4206 H   0  0  0  0  0  0  0  0  0  0  0  0
   -5.4784    0.2738   -0.2644 H   0  0  0  0  0  0  0  0  0  0  0  0
    5.8545   -1.5164   -0.3400 H   0  0  0  0  0  0  0  0  0  0  0  0
    5.6147    0.3068    0.0242 H   0  0  0  0  0  0  0  0  0  0  0  0
  1 12  2  0  0  0  0
  2  8  1  0  0  0  0
  2 10  2  0  0  0  0
  3 10  1  0  0  0  0
  3 19  1  0  0  0  0
  3 20  1  0  0  0  0
  4 12  1  0  0  0  0
  4 13  2  0  0  0  0
  5  6  1  0  0  0  0
  5  8  2  0  0  0  0
  5  9  1  0  0  0  0
  6  7  2  0  0  0  0
  6 14  1  0  0  0  0
  7 10  1  0  0  0  0
  7 15  1  0  0  0  0
  8 16  1  0  0  0  0
  9 11  2  3  0  0  0
  9 17  1  0  0  0  0
 11 12  1  0  0  0  0
 11 18  1  0  0  0  0
 13 21  1  0  0  0  0
 13 22  1  0  0  0  0
M  END
>  <PUBCHEM_COMPOUND_CID>
123711792

>  <PUBCHEM_CONFORMER_RMSD>
0.6

>  <PUBCHEM_CONFORMER_DIVERSEORDER>
1
8
11
5
6
7
4
12
10
2
3
9

>  <PUBCHEM_MMFF94_PARTIAL_CHARGES>
22
1 -0.57
10 0.41
11 -0.14
12 0.77
13 0.33
14 0.15
15 0.15
16 0.15
17 0.15
18 0.15
19 0.4
2 -0.62
20 0.4
21 0.06
22 0.06
3 -0.9
4 -0.66
5 0.03
6 -0.15
7 -0.15
8 0.16
9 -0.18

>  <PUBCHEM_EFFECTIVE_ROTOR_COUNT>
3

>  <PUBCHEM_PHARMACOPHORE_FEATURES>
6
1 1 acceptor
1 3 donor
1 4 acceptor
1 4 donor
3 2 3 10 cation
6 2 5 6 7 8 10 rings

>  <PUBCHEM_HEAVY_ATOM_COUNT>
13

>  <PUBCHEM_ATOM_DEF_STEREO_COUNT>
0

>  <PUBCHEM_ATOM_UDEF_STEREO_COUNT>
0

>  <PUBCHEM_BOND_DEF_STEREO_COUNT>
0

>  <PUBCHEM_BOND_UDEF_STEREO_COUNT>
1

>  <PUBCHEM_ISOTOPIC_ATOM_COUNT>
0

>  <PUBCHEM_COMPONENT_COUNT>
1

>  <PUBCHEM_CACTVS_TAUTO_COUNT>
6

>  <PUBCHEM_CONFORMER_ID>
075FB13000000001

>  <PUBCHEM_MMFF94_ENERGY>
38.6864

>  <PUBCHEM_FEATURE_SELFOVERLAP>
30.489

>  <PUBCHEM_SHAPE_FINGERPRINT>
12032990 46 18410295830253097113
12932764 1 17313092047656754832
13288520 33 18411421695779147887
13690532 89 18408603669173468991
14252887 29 17274829017709864462
14325111 11 18410573993963081248
14993402 34 16950282914215332311
17834072 33 18335144219817836884
18186145 218 17313379067288428172
1986462 14 18335985289650529756
200 152 17775564230116015795
20279233 1 18131358505052393310
20645477 70 18272091578635125662
21119208 17 17749390368759771334
21267235 1 18409175406371761946
22485316 2 18272649077910888718
23402539 116 18272927216083041653
23559900 14 18411133680021056040
42 15 18410576180122462478
4214541 1 18410856529723016864
5104073 3 18412263956040501768
69090 78 18343579663766539887
77779 3 18410294718225864980
9709674 26 18412270518983202974

>  <PUBCHEM_SHAPE_MULTIPOLES>
246.72
9.56
1.29
0.61
5.63
0.11
0.01
-1.94
-0.64
-0.24
0.02
0.02
-0.01
0.27

>  <PUBCHEM_SHAPE_SELFOVERLAP>
510.963

>  <PUBCHEM_SHAPE_VOLUME>
140.1

>  <PUBCHEM_COORDINATE_TYPE>
2
5
10

$$$$
