123855593
 OpenBabel01182520543D

 32 32  0  0  0  0  0  0  0  0999 V2000
   -1.4422   -0.7177    0.1123 O   0  0  0  0  0  0  0  0  0  0  0  0
   -2.2662    1.4197   -0.1792 O   0  0  0  0  0  0  0  0  0  0  0  0
    0.7516   -2.2514    0.2983 O   0  0  0  0  0  0  0  0  0  0  0  0
   -0.1574   -0.1495    0.0281 N   0  0  0  0  0  0  0  0  0  0  0  0
    3.6997    1.4524    0.3657 N   0  0  0  0  0  0  0  0  0  0  0  0
    6.0175    1.2546   -0.1496 N   0  0  0  0  0  0  0  0  0  0  0  0
   -4.9333    0.5073   -0.0675 C   0  0  0  0  0  0  0  0  0  0  0  0
   -6.2797   -0.2120   -0.0016 C   0  0  0  0  0  0  0  0  0  0  0  0
   -3.7714   -0.4721    0.0885 C   0  0  0  0  0  0  0  0  0  0  0  0
   -7.4378    0.7540   -0.1949 C   0  0  0  0  0  0  0  0  0  0  0  0
   -2.4307    0.2187   -0.0130 C   0  0  0  0  0  0  0  0  0  0  0  0
    2.2469   -0.4557    0.0600 C   0  0  0  0  0  0  0  0  0  0  0  0
    0.8823   -1.0395    0.1468 C   0  0  0  0  0  0  0  0  0  0  0  0
    3.3240   -1.2137   -0.3859 C   0  0  0  0  0  0  0  0  0  0  0  0
    2.4853    0.8606    0.4207 C   0  0  0  0  0  0  0  0  0  0  0  0
    4.5888   -0.6402   -0.4562 C   0  0  0  0  0  0  0  0  0  0  0  0
    4.7225    0.6845   -0.0724 C   0  0  0  0  0  0  0  0  0  0  0  0
   -4.8818    1.2713    0.7182 H   0  0  0  0  0  0  0  0  0  0  0  0
   -4.8439    1.0348   -1.0256 H   0  0  0  0  0  0  0  0  0  0  0  0
   -6.3270   -0.9866   -0.7759 H   0  0  0  0  0  0  0  0  0  0  0  0
   -6.3862   -0.7143    0.9669 H   0  0  0  0  0  0  0  0  0  0  0  0
   -3.8307   -0.9640    1.0658 H   0  0  0  0  0  0  0  0  0  0  0  0
   -3.8221   -1.2330   -0.6986 H   0  0  0  0  0  0  0  0  0  0  0  0
   -7.4385    1.5257    0.5815 H   0  0  0  0  0  0  0  0  0  0  0  0
   -7.3786    1.2475   -1.1703 H   0  0  0  0  0  0  0  0  0  0  0  0
   -8.3909    0.2185   -0.1425 H   0  0  0  0  0  0  0  0  0  0  0  0
   -0.0956    0.8483   -0.1407 H   0  0  0  0  0  0  0  0  0  0  0  0
    3.1953   -2.2501   -0.6857 H   0  0  0  0  0  0  0  0  0  0  0  0
    1.7056    1.5130    0.7997 H   0  0  0  0  0  0  0  0  0  0  0  0
    5.4338   -1.2251   -0.8045 H   0  0  0  0  0  0  0  0  0  0  0  0
    6.8194    0.6443   -0.0499 H   0  0  0  0  0  0  0  0  0  0  0  0
    6.1117    2.2209    0.1377 H   0  0  0  0  0  0  0  0  0  0  0  0
  1  4  1  0  0  0  0
  1 11  1  0  0  0  0
  2 11  2  0  0  0  0
  3 13  2  0  0  0  0
  4 13  1  0  0  0  0
  4 27  1  0  0  0  0
  5 15  1  0  0  0  0
  5 17  2  0  0  0  0
  6 17  1  0  0  0  0
  6 31  1  0  0  0  0
  6 32  1  0  0  0  0
  7  8  1  0  0  0  0
  7  9  1  0  0  0  0
  7 18  1  0  0  0  0
  7 19  1  0  0  0  0
  8 10  1  0  0  0  0
  8 20  1  0  0  0  0
  8 21  1  0  0  0  0
  9 11  1  0  0  0  0
  9 22  1  0  0  0  0
  9 23  1  0  0  0  0
 10 24  1  0  0  0  0
 10 25  1  0  0  0  0
 10 26  1  0  0  0  0
 12 13  1  0  0  0  0
 12 14  1  0  0  0  0
 12 15  2  0  0  0  0
 14 16  2  0  0  0  0
 14 28  1  0  0  0  0
 15 29  1  0  0  0  0
 16 17  1  0  0  0  0
 16 30  1  0  0  0  0
M  END
>  <PUBCHEM_COMPOUND_CID>
123855593

>  <PUBCHEM_CONFORMER_RMSD>
1

>  <PUBCHEM_CONFORMER_DIVERSEORDER>
1
44
61
41
75
31
65
8
52
17
84
92
15
10
83
72
38
3
43
12
78
56
7
4
87
33
36
40
45
35
11
23
76
69
47
30
58
24
88
13
59
9
82
14
22
49
2
32
67
51
21
18
16
54
74
34
80
89
25
20
62
29
37
5
90
71
28
93
70
39
26
53
68
85
91
48
6
55
60
66
63
57
27
81
50
46
79
77
64
42
19
86
94
73

>  <PUBCHEM_MMFF94_PARTIAL_CHARGES>
20
1 -0.19
11 0.66
12 0.09
13 0.54
14 -0.15
15 0.16
16 -0.15
17 0.41
2 -0.57
27 0.37
28 0.15
29 0.15
3 -0.57
30 0.15
31 0.4
32 0.4
4 -0.39
5 -0.62
6 -0.9
9 0.06

>  <PUBCHEM_EFFECTIVE_ROTOR_COUNT>
7

>  <PUBCHEM_PHARMACOPHORE_FEATURES>
7
1 10 hydrophobe
1 2 acceptor
1 3 acceptor
1 4 donor
1 6 donor
3 5 6 17 cation
6 5 12 14 15 16 17 rings

>  <PUBCHEM_HEAVY_ATOM_COUNT>
17

>  <PUBCHEM_ATOM_DEF_STEREO_COUNT>
0

>  <PUBCHEM_ATOM_UDEF_STEREO_COUNT>
0

>  <PUBCHEM_BOND_DEF_STEREO_COUNT>
0

>  <PUBCHEM_BOND_UDEF_STEREO_COUNT>
0

>  <PUBCHEM_ISOTOPIC_ATOM_COUNT>
0

>  <PUBCHEM_COMPONENT_COUNT>
1

>  <PUBCHEM_CACTVS_TAUTO_COUNT>
9

>  <PUBCHEM_CONFORMER_ID>
0761E2E900000001

>  <PUBCHEM_MMFF94_ENERGY>
36.8224

>  <PUBCHEM_FEATURE_SELFOVERLAP>
35.521

>  <PUBCHEM_SHAPE_FINGERPRINT>
10411042 1 17907016180553501246
10968037 39 18411699890408224599
12236239 1 17847063264137055995
12730499 353 18411144627481594162
12916748 109 18409168796828407088
13081056 2 18410292497390214908
13167372 99 18200879461614982217
1420 363 18333737914291482275
14528608 73 18342172276456663287
15048467 5 18411136931559114865
17834072 33 17989484130680461335
17834076 25 16805323293020251979
20645477 70 18130793300652910238
21652331 79 18409728452151691229
221357 26 18131071511143167776
22224240 67 17749105621239624843
23402539 116 18339919410948003718
23402655 69 18202565094523362814
23557571 272 17241047587792336095
29717793 49 17275109400894287996
335352 9 18412549808744206614
3545911 37 18410012143315416519
4073 2 18186808006297494219
42788 4 18412545401469301111
4340502 62 16298384660492920682
4463277 17 18411982443221532685
465052 167 8214148460589332392
5104073 3 17896884257943055145
542803 24 17704354351712700491
59682541 52 17631750300527780540
59755656 520 17821722866469880691
6025842 7 18131635552271652758

>  <PUBCHEM_SHAPE_MULTIPOLES>
317.3
16.73
1.48
0.64
20.77
0.23
-0.01
-5.35
-1.57
-1.29
0.07
-0.09
0.01
0.33

>  <PUBCHEM_SHAPE_SELFOVERLAP>
641.6

>  <PUBCHEM_SHAPE_VOLUME>
183.9

>  <PUBCHEM_COORDINATE_TYPE>
2
5
10

$$$$
