123909110
 OpenBabel01182520543D

 26 26  0  0  0  0  0  0  0  0999 V2000
   -2.1280   -0.4677   -0.3385 O   0  0  0  0  0  0  0  0  0  0  0  0
    0.1210   -1.6652   -1.1804 O   0  0  0  0  0  0  0  0  0  0  0  0
   -3.0310    1.3150    0.8188 O   0  0  0  0  0  0  0  0  0  0  0  0
   -0.8667    0.0902   -0.0580 N   0  0  0  0  0  0  0  0  0  0  0  0
    3.7407   -0.2188    0.7318 N   0  0  0  0  0  0  0  0  0  0  0  0
    2.2104   -2.0187    0.9283 N   0  0  0  0  0  0  0  0  0  0  0  0
    1.5451   -0.0378   -0.2638 C   0  0  0  0  0  0  0  0  0  0  0  0
    2.5158   -0.7186    0.4531 C   0  0  0  0  0  0  0  0  0  0  0  0
   -4.4621   -0.3861   -0.1655 C   0  0  0  0  0  0  0  0  0  0  0  0
    1.8510    1.2381   -0.7244 C   0  0  0  0  0  0  0  0  0  0  0  0
    0.2047   -0.6137   -0.5514 C   0  0  0  0  0  0  0  0  0  0  0  0
   -5.6538    0.3943    0.3611 C   0  0  0  0  0  0  0  0  0  0  0  0
    3.1007    1.7862   -0.4578 C   0  0  0  0  0  0  0  0  0  0  0  0
   -3.1499    0.2788    0.1790 C   0  0  0  0  0  0  0  0  0  0  0  0
    4.0019    1.0239    0.2679 C   0  0  0  0  0  0  0  0  0  0  0  0
   -4.4658   -1.3913    0.2691 H   0  0  0  0  0  0  0  0  0  0  0  0
   -4.5349   -0.4657   -1.2553 H   0  0  0  0  0  0  0  0  0  0  0  0
    1.1284    1.8153   -1.2952 H   0  0  0  0  0  0  0  0  0  0  0  0
   -5.6787    1.4052   -0.0594 H   0  0  0  0  0  0  0  0  0  0  0  0
   -5.6128    0.4864    1.4515 H   0  0  0  0  0  0  0  0  0  0  0  0
   -6.5877   -0.1102    0.0950 H   0  0  0  0  0  0  0  0  0  0  0  0
    3.3615    2.7785   -0.8076 H   0  0  0  0  0  0  0  0  0  0  0  0
   -0.8289    0.9527    0.4746 H   0  0  0  0  0  0  0  0  0  0  0  0
    4.9900    1.4059    0.5022 H   0  0  0  0  0  0  0  0  0  0  0  0
    1.2500   -2.2352    1.1648 H   0  0  0  0  0  0  0  0  0  0  0  0
    2.9400   -2.4935    1.4462 H   0  0  0  0  0  0  0  0  0  0  0  0
  1  4  1  0  0  0  0
  1 14  1  0  0  0  0
  2 11  2  0  0  0  0
  3 14  2  0  0  0  0
  4 11  1  0  0  0  0
  4 23  1  0  0  0  0
  5  8  1  0  0  0  0
  5 15  2  0  0  0  0
  6  8  1  0  0  0  0
  6 25  1  0  0  0  0
  6 26  1  0  0  0  0
  7  8  2  0  0  0  0
  7 10  1  0  0  0  0
  7 11  1  0  0  0  0
  9 12  1  0  0  0  0
  9 14  1  0  0  0  0
  9 16  1  0  0  0  0
  9 17  1  0  0  0  0
 10 13  2  0  0  0  0
 10 18  1  0  0  0  0
 12 19  1  0  0  0  0
 12 20  1  0  0  0  0
 12 21  1  0  0  0  0
 13 15  1  0  0  0  0
 13 22  1  0  0  0  0
 15 24  1  0  0  0  0
M  END
>  <PUBCHEM_COMPOUND_CID>
123909110

>  <PUBCHEM_CONFORMER_RMSD>
0.8

>  <PUBCHEM_CONFORMER_DIVERSEORDER>
1
91
33
63
35
59
15
8
74
86
72
27
88
16
89
5
20
12
47
11
6
9
17
50
23
38
60
61
3
56
71
37
52
76
42
40
87
10
31
65
25
81
4
45
2
78
55
14
44
58
24
22
53
67
32
77
13
26
84
54
46
80
51
69
28
36
49
57
29
21
41
48
19
34
7
90
83
82
79
75
66
18
85
68
39
70
62
64
43
30
73

>  <PUBCHEM_MMFF94_PARTIAL_CHARGES>
20
1 -0.19
10 -0.15
11 0.54
13 -0.15
14 0.66
15 0.16
18 0.15
2 -0.57
22 0.15
23 0.37
24 0.15
25 0.4
26 0.4
3 -0.57
4 -0.39
5 -0.62
6 -0.9
7 0.09
8 0.41
9 0.06

>  <PUBCHEM_EFFECTIVE_ROTOR_COUNT>
5

>  <PUBCHEM_PHARMACOPHORE_FEATURES>
8
1 12 hydrophobe
1 2 acceptor
1 3 acceptor
1 4 donor
1 5 acceptor
1 6 cation
1 6 donor
6 5 7 8 10 13 15 rings

>  <PUBCHEM_HEAVY_ATOM_COUNT>
15

>  <PUBCHEM_ATOM_DEF_STEREO_COUNT>
0

>  <PUBCHEM_ATOM_UDEF_STEREO_COUNT>
0

>  <PUBCHEM_BOND_DEF_STEREO_COUNT>
0

>  <PUBCHEM_BOND_UDEF_STEREO_COUNT>
0

>  <PUBCHEM_ISOTOPIC_ATOM_COUNT>
0

>  <PUBCHEM_COMPONENT_COUNT>
1

>  <PUBCHEM_CACTVS_TAUTO_COUNT>
9

>  <PUBCHEM_CONFORMER_ID>
0762B3F600000001

>  <PUBCHEM_MMFF94_ENERGY>
40.7913

>  <PUBCHEM_FEATURE_SELFOVERLAP>
40.596

>  <PUBCHEM_SHAPE_FINGERPRINT>
10354089 29 18335423482200743456
10465860 228 18058459711493794742
10498660 4 16271658771617398161
10980938 120 18333728022760143028
12251169 10 18334856121326354767
12346645 6 18410011027003942214
13533116 47 17967814891159299875
14252887 29 16877942711234349698
15775835 57 18341895237822616100
19050596 39 18409166640770616323
20233049 118 17775282772714995608
20279233 1 16226049989783119193
20645477 70 18259981544223053651
21119208 17 10231757794673040057
212847 35 18131632296359011160
21524375 3 18343303694842632422
22854114 59 18040714787838294157
23048698 100 18408324380298227905
23402539 116 17704065226819227589
26918003 58 17748826332538391953
4047638 21 17846499270585904400
42 15 17603586318255150241
449060 62 18410014359524062901
474 4 18115590486113357908
4990 188 14189578537571241485
5281201 14 12967138202542590361
5374978 207 18334014982463059129
8272917 22 18334296439774707738

>  <PUBCHEM_SHAPE_MULTIPOLES>
276.14
9.85
1.58
0.89
12.25
0.18
-0.05
-2.57
2.01
-1.4
0
-0.18
0.13
-0.8

>  <PUBCHEM_SHAPE_SELFOVERLAP>
566.45

>  <PUBCHEM_SHAPE_VOLUME>
158

>  <PUBCHEM_COORDINATE_TYPE>
2
5
10

$$$$
