123920016
 OpenBabel01182520543D

 28 28  0  0  0  0  0  0  0  0999 V2000
    0.7644   -1.3459    0.7071 O   0  0  0  0  0  0  0  0  0  0  0  0
    1.0318    0.7983   -0.1522 N   0  0  0  0  0  0  0  0  0  0  0  0
   -3.3257   -1.2412   -0.1837 N   0  0  0  0  0  0  0  0  0  0  0  0
   -5.2974    0.0948   -0.2506 N   0  0  0  0  0  0  0  0  0  0  0  0
   -1.1772   -0.1752    0.1196 C   0  0  0  0  0  0  0  0  0  0  0  0
    0.2976   -0.3057    0.2492 C   0  0  0  0  0  0  0  0  0  0  0  0
    2.3979    0.8575   -0.0824 C   0  0  0  0  0  0  0  0  0  0  0  0
   -1.7943    1.0698    0.1742 C   0  0  0  0  0  0  0  0  0  0  0  0
   -1.9804   -1.2899   -0.0591 C   0  0  0  0  0  0  0  0  0  0  0  0
   -3.1762    1.1603    0.0500 C   0  0  0  0  0  0  0  0  0  0  0  0
   -3.8901   -0.0141   -0.1257 C   0  0  0  0  0  0  0  0  0  0  0  0
    2.9605    2.2330    0.1309 C   0  0  0  0  0  0  0  0  0  0  0  0
    3.1936   -0.2218   -0.1935 C   0  0  0  0  0  0  0  0  0  0  0  0
    4.6397   -0.2479   -0.1315 C   0  0  0  0  0  0  0  0  0  0  0  0
    5.3555   -1.3722   -0.2524 C   0  0  0  0  0  0  0  0  0  0  0  0
    0.5637    1.6733   -0.3640 H   0  0  0  0  0  0  0  0  0  0  0  0
   -1.2455    1.9900    0.3464 H   0  0  0  0  0  0  0  0  0  0  0  0
   -1.5625   -2.2904   -0.1145 H   0  0  0  0  0  0  0  0  0  0  0  0
   -3.6659    2.1276    0.0986 H   0  0  0  0  0  0  0  0  0  0  0  0
    3.1951    2.7013   -0.8306 H   0  0  0  0  0  0  0  0  0  0  0  0
    2.2375    2.8758    0.6475 H   0  0  0  0  0  0  0  0  0  0  0  0
    3.8572    2.2356    0.7574 H   0  0  0  0  0  0  0  0  0  0  0  0
    2.7597   -1.1964   -0.4024 H   0  0  0  0  0  0  0  0  0  0  0  0
    5.1801    0.6823    0.0073 H   0  0  0  0  0  0  0  0  0  0  0  0
   -5.7621    0.8745    0.1981 H   0  0  0  0  0  0  0  0  0  0  0  0
   -5.8155   -0.7665   -0.3727 H   0  0  0  0  0  0  0  0  0  0  0  0
    6.4389   -1.3375   -0.2047 H   0  0  0  0  0  0  0  0  0  0  0  0
    4.8894   -2.3408   -0.3991 H   0  0  0  0  0  0  0  0  0  0  0  0
  1  6  2  0  0  0  0
  2  6  1  0  0  0  0
  2  7  1  0  0  0  0
  2 16  1  0  0  0  0
  3  9  1  0  0  0  0
  3 11  2  0  0  0  0
  4 11  1  0  0  0  0
  4 25  1  0  0  0  0
  4 26  1  0  0  0  0
  5  6  1  0  0  0  0
  5  8  1  0  0  0  0
  5  9  2  0  0  0  0
  7 12  1  0  0  0  0
  7 13  2  3  0  0  0
  8 10  2  0  0  0  0
  8 17  1  0  0  0  0
  9 18  1  0  0  0  0
 10 11  1  0  0  0  0
 10 19  1  0  0  0  0
 12 20  1  0  0  0  0
 12 21  1  0  0  0  0
 12 22  1  0  0  0  0
 13 14  1  0  0  0  0
 13 23  1  0  0  0  0
 14 15  2  0  0  0  0
 14 24  1  0  0  0  0
 15 27  1  0  0  0  0
 15 28  1  0  0  0  0
M  END
>  <PUBCHEM_COMPOUND_CID>
123920016

>  <PUBCHEM_CONFORMER_RMSD>
0.6

>  <PUBCHEM_CONFORMER_DIVERSEORDER>
2
9
5
13
12
8
3
14
6
10
19
1
17
18
4
7
11
16
15

>  <PUBCHEM_MMFF94_PARTIAL_CHARGES>
25
1 -0.57
10 -0.15
11 0.41
12 0.14
13 -0.15
14 -0.15
15 -0.3
16 0.37
17 0.15
18 0.15
19 0.15
2 -0.54
23 0.15
24 0.15
25 0.4
26 0.4
27 0.15
28 0.15
3 -0.62
4 -0.9
5 0.09
6 0.54
7 -0.03
8 -0.15
9 0.16

>  <PUBCHEM_EFFECTIVE_ROTOR_COUNT>
4

>  <PUBCHEM_PHARMACOPHORE_FEATURES>
6
1 1 acceptor
1 15 hydrophobe
1 2 donor
1 4 donor
3 3 4 11 cation
6 3 5 8 9 10 11 rings

>  <PUBCHEM_HEAVY_ATOM_COUNT>
15

>  <PUBCHEM_ATOM_DEF_STEREO_COUNT>
0

>  <PUBCHEM_ATOM_UDEF_STEREO_COUNT>
0

>  <PUBCHEM_BOND_DEF_STEREO_COUNT>
0

>  <PUBCHEM_BOND_UDEF_STEREO_COUNT>
1

>  <PUBCHEM_ISOTOPIC_ATOM_COUNT>
0

>  <PUBCHEM_COMPONENT_COUNT>
1

>  <PUBCHEM_CACTVS_TAUTO_COUNT>
37

>  <PUBCHEM_CONFORMER_ID>
0762DE9000000002

>  <PUBCHEM_MMFF94_ENERGY>
52.1944

>  <PUBCHEM_FEATURE_SELFOVERLAP>
30.446

>  <PUBCHEM_SHAPE_FINGERPRINT>
10465860 250 17203607069182318514
12916754 54 18340771536965234017
13081056 2 18335137609325377229
13167823 11 18412543236521220254
13288520 33 18341334414004490078
13690532 89 18411983533837082394
14325111 11 18337954592280162384
15048467 5 10881402032178578783
15196674 1 18338516447211985069
15242439 84 18187083953181230787
15536298 74 18340485659842490072
17802600 8 18409445877758415236
17834072 8 18409449167945730014
17834076 25 11458426833930954006
18186145 218 18040707108420899180
1986462 14 18409732858766778215
200 152 17917991676501676907
20279233 1 15195570116935152396
20645477 70 18342460352761379734
21119208 17 18409448089697831383
21267235 1 18410019831660492611
221490 88 18265059205084453578
23402539 116 17989201517331942349
23557571 272 16128383627457338872
23559900 14 18341610468964815672
3004659 81 18114750327072304998
3286 77 18412544331896201452
351380 180 18413669123405855012
3545911 37 18186519895812068815
42 15 18413390930047727188
4214541 1 18412263913085715485
4990 188 18412268311474988222
5104073 3 18340488966587260339
542803 24 14129058101673754847
559249 180 18266175041772249114
58051976 100 18411417332092745614
633830 44 17749667497287535658
69090 78 18272930548313063958
77779 3 18411420647939061324
9709674 26 18265054819854382946
9971528 1 18410571791278068980
9981440 41 17472977775955528304

>  <PUBCHEM_SHAPE_MULTIPOLES>
287.88
10.56
1.66
0.64
2.45
0.45
0.02
-1.84
-1.26
0.97
0.06
0.05
-0.03
0.04

>  <PUBCHEM_SHAPE_SELFOVERLAP>
593.355

>  <PUBCHEM_SHAPE_VOLUME>
164.5

>  <PUBCHEM_COORDINATE_TYPE>
2
5
10

$$$$
