12404026
 OpenBabel01182520543D

 20 20  0  0  0  0  0  0  0  0999 V2000
    2.6906    0.4070   -1.1113 O   0  0  0  0  0  0  0  0  0  0  0  0
   -1.5278    1.3607   -0.0049 N   0  0  0  0  0  0  0  0  0  0  0  0
   -3.5338    0.0753    0.0266 N   0  0  0  0  0  0  0  0  0  0  0  0
    2.7186    0.4031    1.1818 N   0  0  0  0  0  0  0  0  0  0  0  0
   -0.0351   -1.0027   -0.0097 C   0  0  0  0  0  0  0  0  0  0  0  0
    0.6088    0.2296   -0.0243 C   0  0  0  0  0  0  0  0  0  0  0  0
   -1.4246   -1.0547    0.0074 C   0  0  0  0  0  0  0  0  0  0  0  0
    0.7394   -2.2794   -0.0116 C   0  0  0  0  0  0  0  0  0  0  0  0
   -2.1184    0.1447    0.0092 C   0  0  0  0  0  0  0  0  0  0  0  0
   -0.1761    1.3715   -0.0211 C   0  0  0  0  0  0  0  0  0  0  0  0
    2.0584    0.3449   -0.0422 C   0  0  0  0  0  0  0  0  0  0  0  0
   -1.9495   -2.0051    0.0188 H   0  0  0  0  0  0  0  0  0  0  0  0
    1.3442   -2.3618    0.8974 H   0  0  0  0  0  0  0  0  0  0  0  0
    0.0817   -3.1549   -0.0472 H   0  0  0  0  0  0  0  0  0  0  0  0
    1.3939   -2.3314   -0.8880 H   0  0  0  0  0  0  0  0  0  0  0  0
    0.2678    2.3625   -0.0323 H   0  0  0  0  0  0  0  0  0  0  0  0
   -4.0363    0.9543    0.0340 H   0  0  0  0  0  0  0  0  0  0  0  0
   -3.9715   -0.7306    0.4559 H   0  0  0  0  0  0  0  0  0  0  0  0
    2.2206    0.3601    2.0652 H   0  0  0  0  0  0  0  0  0  0  0  0
    3.7285    0.4897    1.2264 H   0  0  0  0  0  0  0  0  0  0  0  0
  1 11  2  0  0  0  0
  2  9  2  0  0  0  0
  2 10  1  0  0  0  0
  3  9  1  0  0  0  0
  3 17  1  0  0  0  0
  3 18  1  0  0  0  0
  4 11  1  0  0  0  0
  4 19  1  0  0  0  0
  4 20  1  0  0  0  0
  5  6  1  0  0  0  0
  5  7  2  0  0  0  0
  5  8  1  0  0  0  0
  6 10  2  0  0  0  0
  6 11  1  0  0  0  0
  7  9  1  0  0  0  0
  7 12  1  0  0  0  0
  8 13  1  0  0  0  0
  8 14  1  0  0  0  0
  8 15  1  0  0  0  0
 10 16  1  0  0  0  0
M  END
>  <PUBCHEM_COMPOUND_CID>
12404026

>  <PUBCHEM_CONFORMER_RMSD>
0.4

>  <PUBCHEM_CONFORMER_DIVERSEORDER>
2
3
1

>  <PUBCHEM_MMFF94_PARTIAL_CHARGES>
17
1 -0.57
10 0.16
11 0.54
12 0.15
16 0.15
17 0.4
18 0.4
19 0.37
2 -0.62
20 0.37
3 -0.9
4 -0.8
5 -0.14
6 0.09
7 -0.15
8 0.14
9 0.41

>  <PUBCHEM_EFFECTIVE_ROTOR_COUNT>
1

>  <PUBCHEM_PHARMACOPHORE_FEATURES>
5
1 1 acceptor
1 3 donor
1 4 donor
3 2 3 9 cation
6 2 5 6 7 9 10 rings

>  <PUBCHEM_HEAVY_ATOM_COUNT>
11

>  <PUBCHEM_ATOM_DEF_STEREO_COUNT>
0

>  <PUBCHEM_ATOM_UDEF_STEREO_COUNT>
0

>  <PUBCHEM_BOND_DEF_STEREO_COUNT>
0

>  <PUBCHEM_BOND_UDEF_STEREO_COUNT>
0

>  <PUBCHEM_ISOTOPIC_ATOM_COUNT>
0

>  <PUBCHEM_COMPONENT_COUNT>
1

>  <PUBCHEM_CACTVS_TAUTO_COUNT>
7

>  <PUBCHEM_CONFORMER_ID>
00BD453A00000002

>  <PUBCHEM_MMFF94_ENERGY>
41.379

>  <PUBCHEM_FEATURE_SELFOVERLAP>
25.371

>  <PUBCHEM_SHAPE_FINGERPRINT>
10857977 72 18338513140081821193
12423570 1 17199384046619983342
12897270 3 18411421700216520525
14325111 11 18410575089000393661
15310529 11 16588016948245369076
161256 15 18196376922395984775
16945 1 18410573998310737589
193761 8 17834114147844990197
20645464 45 17988635359074620920
20645476 183 17677625318066906222
21040471 1 18410856559835052854
21501502 16 18123193402960816241
23235685 24 18407760347865348357
23402655 69 18267849603146959357
23552423 10 18117846490652371231
23559900 14 18271535286392579756
2748010 2 18120937205148112341
369184 2 18130777988645619544
5084963 1 18201449068498413740
528886 8 18410855490335461691
7364860 26 18057038004373459734

>  <PUBCHEM_SHAPE_MULTIPOLES>
205.56
3.96
1.69
0.78
0.82
0.81
0.02
-0.8
0.09
-0.08
-0.01
-0.52
-0.07
0.01

>  <PUBCHEM_SHAPE_SELFOVERLAP>
430.004

>  <PUBCHEM_SHAPE_VOLUME>
116.7

>  <PUBCHEM_COORDINATE_TYPE>
2
5
10

$$$$
