126719554
 OpenBabel01182520543D

 38 38  0  0  0  0  0  0  0  0999 V2000
    4.0357    1.4794   -0.0741 O   0  0  0  0  0  0  0  0  0  0  0  0
   -2.0932   -0.0700    0.0087 N   0  0  0  0  0  0  0  0  0  0  0  0
    0.0287   -1.0011   -0.4874 N   0  0  0  0  0  0  0  0  0  0  0  0
    4.1879   -0.8317    0.0351 N   0  0  0  0  0  0  0  0  0  0  0  0
   -2.7417   -1.2784   -0.5039 C   0  0  0  0  0  0  0  0  0  0  0  0
   -2.9226    0.9982    0.5121 C   0  0  0  0  0  0  0  0  0  0  0  0
   -2.7605   -2.3731    0.5580 C   0  0  0  0  0  0  0  0  0  0  0  0
   -3.1341    2.0665   -0.5555 C   0  0  0  0  0  0  0  0  0  0  0  0
   -0.6949    0.0331   -0.0034 C   0  0  0  0  0  0  0  0  0  0  0  0
   -3.4657   -3.6384    0.0891 C   0  0  0  0  0  0  0  0  0  0  0  0
   -4.0415    3.1964   -0.0886 C   0  0  0  0  0  0  0  0  0  0  0  0
   -0.1411    1.2041    0.4883 C   0  0  0  0  0  0  0  0  0  0  0  0
    1.2445    1.3214    0.4828 C   0  0  0  0  0  0  0  0  0  0  0  0
    2.0228    0.2785   -0.0072 C   0  0  0  0  0  0  0  0  0  0  0  0
    1.3723   -0.8511   -0.4767 C   0  0  0  0  0  0  0  0  0  0  0  0
    3.4722    0.3706   -0.0262 C   0  0  0  0  0  0  0  0  0  0  0  0
    5.6313   -0.9043    0.0488 C   0  0  0  0  0  0  0  0  0  0  0  0
   -3.7723   -1.0480   -0.8034 H   0  0  0  0  0  0  0  0  0  0  0  0
   -2.2466   -1.6317   -1.4172 H   0  0  0  0  0  0  0  0  0  0  0  0
   -3.9080    0.5923    0.7805 H   0  0  0  0  0  0  0  0  0  0  0  0
   -2.5563    1.4183    1.4562 H   0  0  0  0  0  0  0  0  0  0  0  0
   -3.2627   -2.0023    1.4601 H   0  0  0  0  0  0  0  0  0  0  0  0
   -1.7387   -2.6323    0.8582 H   0  0  0  0  0  0  0  0  0  0  0  0
   -3.5791    1.6078   -1.4477 H   0  0  0  0  0  0  0  0  0  0  0  0
   -2.1821    2.4987   -0.8815 H   0  0  0  0  0  0  0  0  0  0  0  0
   -4.5077   -3.4302   -0.1739 H   0  0  0  0  0  0  0  0  0  0  0  0
   -3.4584   -4.3932    0.8815 H   0  0  0  0  0  0  0  0  0  0  0  0
   -2.9665   -4.0603   -0.7889 H   0  0  0  0  0  0  0  0  0  0  0  0
   -3.6113    3.7082    0.7780 H   0  0  0  0  0  0  0  0  0  0  0  0
   -5.0287    2.8151    0.1911 H   0  0  0  0  0  0  0  0  0  0  0  0
   -4.1746    3.9319   -0.8881 H   0  0  0  0  0  0  0  0  0  0  0  0
   -0.6958    2.0467    0.8797 H   0  0  0  0  0  0  0  0  0  0  0  0
    1.7005    2.2301    0.8669 H   0  0  0  0  0  0  0  0  0  0  0  0
    1.8998   -1.6989   -0.9010 H   0  0  0  0  0  0  0  0  0  0  0  0
    3.6932   -1.7092    0.1552 H   0  0  0  0  0  0  0  0  0  0  0  0
    5.9360   -1.8402   -0.4250 H   0  0  0  0  0  0  0  0  0  0  0  0
    5.9655   -0.8916    1.0892 H   0  0  0  0  0  0  0  0  0  0  0  0
    6.0631   -0.0548   -0.4858 H   0  0  0  0  0  0  0  0  0  0  0  0
  1 16  2  0  0  0  0
  2  5  1  0  0  0  0
  2  6  1  0  0  0  0
  2  9  1  0  0  0  0
  3  9  2  0  0  0  0
  3 15  1  0  0  0  0
  4 16  1  0  0  0  0
  4 17  1  0  0  0  0
  4 35  1  0  0  0  0
  5  7  1  0  0  0  0
  5 18  1  0  0  0  0
  5 19  1  0  0  0  0
  6  8  1  0  0  0  0
  6 20  1  0  0  0  0
  6 21  1  0  0  0  0
  7 10  1  0  0  0  0
  7 22  1  0  0  0  0
  7 23  1  0  0  0  0
  8 11  1  0  0  0  0
  8 24  1  0  0  0  0
  8 25  1  0  0  0  0
  9 12  1  0  0  0  0
 10 26  1  0  0  0  0
 10 27  1  0  0  0  0
 10 28  1  0  0  0  0
 11 29  1  0  0  0  0
 11 30  1  0  0  0  0
 11 31  1  0  0  0  0
 12 13  2  0  0  0  0
 12 32  1  0  0  0  0
 13 14  1  0  0  0  0
 13 33  1  0  0  0  0
 14 15  2  0  0  0  0
 14 16  1  0  0  0  0
 15 34  1  0  0  0  0
 17 36  1  0  0  0  0
 17 37  1  0  0  0  0
 17 38  1  0  0  0  0
M  END
>  <PUBCHEM_COMPOUND_CID>
126719554

>  <PUBCHEM_CONFORMER_RMSD>
0.8

>  <PUBCHEM_CONFORMER_DIVERSEORDER>
1
33
31
3
27
32
17
25
39
29
19
18
37
41
24
36
9
6
21
34
15
40
38
28
42
30
7
20
35
26
16
23
11
13
14
5
22
2
4
12
8
10

>  <PUBCHEM_MMFF94_PARTIAL_CHARGES>
17
1 -0.57
12 -0.15
13 -0.15
14 0.09
15 0.16
16 0.54
17 0.3
2 -0.84
3 -0.62
32 0.15
33 0.15
34 0.15
35 0.37
4 -0.73
5 0.37
6 0.37
9 0.41

>  <PUBCHEM_EFFECTIVE_ROTOR_COUNT>
7

>  <PUBCHEM_PHARMACOPHORE_FEATURES>
6
1 1 acceptor
1 10 hydrophobe
1 11 hydrophobe
1 4 donor
3 2 3 9 cation
6 3 9 12 13 14 15 rings

>  <PUBCHEM_HEAVY_ATOM_COUNT>
17

>  <PUBCHEM_ATOM_DEF_STEREO_COUNT>
0

>  <PUBCHEM_ATOM_UDEF_STEREO_COUNT>
0

>  <PUBCHEM_BOND_DEF_STEREO_COUNT>
0

>  <PUBCHEM_BOND_UDEF_STEREO_COUNT>
0

>  <PUBCHEM_ISOTOPIC_ATOM_COUNT>
0

>  <PUBCHEM_COMPONENT_COUNT>
1

>  <PUBCHEM_CACTVS_TAUTO_COUNT>
2

>  <PUBCHEM_CONFORMER_ID>
078D964200000001

>  <PUBCHEM_MMFF94_ENERGY>
42.5361

>  <PUBCHEM_FEATURE_SELFOVERLAP>
30.446

>  <PUBCHEM_SHAPE_FINGERPRINT>
11401426 45 17845643751597173088
11405975 8 18408319969667670776
12032990 46 18341617078750646438
12293681 160 17557694773134373849
12403259 226 18198620136754603249
124424 183 18131627855320654800
12500047 106 18337950087012352201
13140716 1 18272937149725537328
13380535 76 18199748046748299365
13675066 3 18131346423799830954
13760787 19 18187366489494970082
15042514 8 18336552720141278555
15196674 1 18412825807152207312
17539 30 18340196501596451167
19026448 5 17967253117889487756
19422 9 18334860562681111486
20281475 54 18336549421031135142
20602899 9 15482374396931608565
20645477 56 18336268925323175669
20645477 70 16988288560374520630
21065198 57 18410292502038603512
21339142 51 18342175548784308761
21426921 1 18409730694446139223
221490 88 18340770459197474552
22182313 1 17774740674548345254
22224240 67 18270411482530355457
2306618 200 18201446891255924363
23402539 116 18200302213499323444
23402655 69 17843390792390744709
23493267 7 18410851023458613419
23557571 272 18343590632996950069
23558518 356 18188495790546347769
23559900 14 18199468771407105270
23598291 2 17822581606788929494
25 1 18055346947311429909
2748010 2 18131354128317064837
4214541 1 18410292497564333568
5104073 3 18343580763863354082
53777708 50 18262528107610712516
559249 180 18338792300187580394
56616090 46 18267026041996423404
58051976 100 18409446973164603238
59554788 248 17418098766567911334
59755656 520 18262512586210301965
633830 44 17022912241852898544
77188 2 17977386367765271335
81228 2 18263078967979775097
8809292 202 18410857689532901115
9709674 26 18271529706227989222

>  <PUBCHEM_SHAPE_MULTIPOLES>
329.04
9.46
3.33
0.72
10.4
1.27
-0.01
0.26
0.1
-6.42
-0.08
-0.19
0
0.41

>  <PUBCHEM_SHAPE_SELFOVERLAP>
656.531

>  <PUBCHEM_SHAPE_VOLUME>
195.1

>  <PUBCHEM_COORDINATE_TYPE>
2
5
10

$$$$
