12711131
 OpenBabel01182520543D

 18 18  0  0  0  0  0  0  0  0999 V2000
   -2.3465   -0.8019   -0.5019 O   0  0  0  0  0  0  0  0  0  0  0  0
    1.8561   -0.9485    0.1091 N   0  0  0  0  0  0  0  0  0  0  0  0
   -0.1629   -2.1877    0.2030 N   0  0  0  0  0  0  0  0  0  0  0  0
   -0.2642    0.2040   -0.0367 C   0  0  0  0  0  0  0  0  0  0  0  0
    0.5043   -0.9421    0.0887 C   0  0  0  0  0  0  0  0  0  0  0  0
    0.3971    1.4220   -0.1487 C   0  0  0  0  0  0  0  0  0  0  0  0
   -1.7203    0.1787   -0.0556 C   0  0  0  0  0  0  0  0  0  0  0  0
    1.7871    1.4561   -0.1319 C   0  0  0  0  0  0  0  0  0  0  0  0
   -2.5145    1.3656    0.4761 C   0  0  0  0  0  0  0  0  0  0  0  0
    2.4638    0.2540   -0.0021 C   0  0  0  0  0  0  0  0  0  0  0  0
   -0.1418    2.3581   -0.2639 H   0  0  0  0  0  0  0  0  0  0  0  0
    2.3241    2.3935   -0.2210 H   0  0  0  0  0  0  0  0  0  0  0  0
   -2.6862    2.0826   -0.3303 H   0  0  0  0  0  0  0  0  0  0  0  0
   -1.9893    1.8443    1.3070 H   0  0  0  0  0  0  0  0  0  0  0  0
   -3.4758    1.0086    0.8580 H   0  0  0  0  0  0  0  0  0  0  0  0
    3.5484    0.2263    0.0152 H   0  0  0  0  0  0  0  0  0  0  0  0
   -1.0677   -2.2125    0.6567 H   0  0  0  0  0  0  0  0  0  0  0  0
    0.4254   -3.0079    0.2875 H   0  0  0  0  0  0  0  0  0  0  0  0
  1  7  2  0  0  0  0
  2  5  1  0  0  0  0
  2 10  2  0  0  0  0
  3  5  1  0  0  0  0
  3 17  1  0  0  0  0
  3 18  1  0  0  0  0
  4  5  2  0  0  0  0
  4  6  1  0  0  0  0
  4  7  1  0  0  0  0
  6  8  2  0  0  0  0
  6 11  1  0  0  0  0
  7  9  1  0  0  0  0
  8 10  1  0  0  0  0
  8 12  1  0  0  0  0
  9 13  1  0  0  0  0
  9 14  1  0  0  0  0
  9 15  1  0  0  0  0
 10 16  1  0  0  0  0
M  END
>  <PUBCHEM_COMPOUND_CID>
12711131

>  <PUBCHEM_CONFORMER_RMSD>
0.4

>  <PUBCHEM_CONFORMER_DIVERSEORDER>
1
6
4
3
2
5

>  <PUBCHEM_MMFF94_PARTIAL_CHARGES>
15
1 -0.57
10 0.16
11 0.15
12 0.15
16 0.15
17 0.4
18 0.4
2 -0.62
3 -0.9
4 0.09
5 0.41
6 -0.15
7 0.42
8 -0.15
9 0.06

>  <PUBCHEM_EFFECTIVE_ROTOR_COUNT>
1

>  <PUBCHEM_PHARMACOPHORE_FEATURES>
5
1 1 acceptor
1 2 acceptor
1 3 cation
1 3 donor
6 2 4 5 6 8 10 rings

>  <PUBCHEM_HEAVY_ATOM_COUNT>
10

>  <PUBCHEM_ATOM_DEF_STEREO_COUNT>
0

>  <PUBCHEM_ATOM_UDEF_STEREO_COUNT>
0

>  <PUBCHEM_BOND_DEF_STEREO_COUNT>
0

>  <PUBCHEM_BOND_UDEF_STEREO_COUNT>
0

>  <PUBCHEM_ISOTOPIC_ATOM_COUNT>
0

>  <PUBCHEM_COMPONENT_COUNT>
1

>  <PUBCHEM_CACTVS_TAUTO_COUNT>
9

>  <PUBCHEM_CONFORMER_ID>
00C1F4DB00000001

>  <PUBCHEM_MMFF94_ENERGY>
35.9065

>  <PUBCHEM_FEATURE_SELFOVERLAP>
25.371

>  <PUBCHEM_SHAPE_FINGERPRINT>
14325111 11 18410856585441540684
16945 1 18267025153059453592
18185500 45 18268145353565773963
21040471 1 18337674229900350476
23402655 69 18267850702315767189
23552423 10 18408324358596492495
2748010 2 18409450275704368356
29004967 10 18041851596851402905
5084963 1 18272931652145974185
528886 8 18410007698019165904

>  <PUBCHEM_SHAPE_MULTIPOLES>
189.96
3.36
1.86
0.64
0.74
0.43
0
-0.79
0.06
-0.01
0.09
0.09
-0.04
-0.29

>  <PUBCHEM_SHAPE_SELFOVERLAP>
395.271

>  <PUBCHEM_SHAPE_VOLUME>
108.1

>  <PUBCHEM_COORDINATE_TYPE>
2
5
10

$$$$
