12793687
 OpenBabel01182520543D

 35 35  0  0  0  0  0  0  0  0999 V2000
    1.0805    0.0395    2.0753 O   0  0  0  0  0  0  0  0  0  0  0  0
    1.9312   -0.2374   -0.0845 N   0  0  0  0  0  0  0  0  0  0  0  0
   -1.0428    1.5558   -0.0202 N   0  0  0  0  0  0  0  0  0  0  0  0
   -2.6199   -0.1901   -0.3121 N   0  0  0  0  0  0  0  0  0  0  0  0
    3.2709    0.2036    0.2779 C   0  0  0  0  0  0  0  0  0  0  0  0
    1.7459   -0.6142   -1.4842 C   0  0  0  0  0  0  0  0  0  0  0  0
    0.9332   -0.2748    0.8947 C   0  0  0  0  0  0  0  0  0  0  0  0
   -0.4166   -0.7078    0.4999 C   0  0  0  0  0  0  0  0  0  0  0  0
   -1.3728    0.1793    0.0570 C   0  0  0  0  0  0  0  0  0  0  0  0
    3.3941    1.7041    0.0951 C   0  0  0  0  0  0  0  0  0  0  0  0
    2.0380   -2.0907   -1.6706 C   0  0  0  0  0  0  0  0  0  0  0  0
   -0.7336   -2.0519    0.5766 C   0  0  0  0  0  0  0  0  0  0  0  0
   -1.9681    2.5451   -0.4667 C   0  0  0  0  0  0  0  0  0  0  0  0
   -2.0066   -2.4707    0.2055 C   0  0  0  0  0  0  0  0  0  0  0  0
   -2.9050   -1.5090   -0.2281 C   0  0  0  0  0  0  0  0  0  0  0  0
   -1.3285    3.9192   -0.4156 C   0  0  0  0  0  0  0  0  0  0  0  0
    3.4621   -0.0466    1.3273 H   0  0  0  0  0  0  0  0  0  0  0  0
    4.0133   -0.3273   -0.3273 H   0  0  0  0  0  0  0  0  0  0  0  0
    0.7209   -0.4039   -1.8007 H   0  0  0  0  0  0  0  0  0  0  0  0
    2.4054   -0.0082   -2.1149 H   0  0  0  0  0  0  0  0  0  0  0  0
    3.2220    1.9951   -0.9462 H   0  0  0  0  0  0  0  0  0  0  0  0
    2.6664    2.2402    0.7137 H   0  0  0  0  0  0  0  0  0  0  0  0
    4.3958    2.0401    0.3802 H   0  0  0  0  0  0  0  0  0  0  0  0
    3.0731   -2.3258   -1.4013 H   0  0  0  0  0  0  0  0  0  0  0  0
    1.3907   -2.7249   -1.0616 H   0  0  0  0  0  0  0  0  0  0  0  0
    1.8933   -2.3723   -2.7185 H   0  0  0  0  0  0  0  0  0  0  0  0
   -0.0115   -2.7823    0.9300 H   0  0  0  0  0  0  0  0  0  0  0  0
   -0.0536    1.7745   -0.0816 H   0  0  0  0  0  0  0  0  0  0  0  0
   -2.2856    2.3367   -1.4949 H   0  0  0  0  0  0  0  0  0  0  0  0
   -2.8621    2.5469    0.1676 H   0  0  0  0  0  0  0  0  0  0  0  0
   -2.2873   -3.5165    0.2561 H   0  0  0  0  0  0  0  0  0  0  0  0
   -3.9108   -1.7838   -0.5282 H   0  0  0  0  0  0  0  0  0  0  0  0
   -1.0100    4.1676    0.6025 H   0  0  0  0  0  0  0  0  0  0  0  0
   -0.4461    3.9680   -1.0629 H   0  0  0  0  0  0  0  0  0  0  0  0
   -2.0377    4.6835   -0.7481 H   0  0  0  0  0  0  0  0  0  0  0  0
  1  7  2  0  0  0  0
  2  5  1  0  0  0  0
  2  6  1  0  0  0  0
  2  7  1  0  0  0  0
  3  9  1  0  0  0  0
  3 13  1  0  0  0  0
  3 28  1  0  0  0  0
  4  9  1  0  0  0  0
  4 15  2  0  0  0  0
  5 10  1  0  0  0  0
  5 17  1  0  0  0  0
  5 18  1  0  0  0  0
  6 11  1  0  0  0  0
  6 19  1  0  0  0  0
  6 20  1  0  0  0  0
  7  8  1  0  0  0  0
  8  9  2  0  0  0  0
  8 12  1  0  0  0  0
 10 21  1  0  0  0  0
 10 22  1  0  0  0  0
 10 23  1  0  0  0  0
 11 24  1  0  0  0  0
 11 25  1  0  0  0  0
 11 26  1  0  0  0  0
 12 14  2  0  0  0  0
 12 27  1  0  0  0  0
 13 16  1  0  0  0  0
 13 29  1  0  0  0  0
 13 30  1  0  0  0  0
 14 15  1  0  0  0  0
 14 31  1  0  0  0  0
 15 32  1  0  0  0  0
 16 33  1  0  0  0  0
 16 34  1  0  0  0  0
 16 35  1  0  0  0  0
M  END
>  <PUBCHEM_COMPOUND_CID>
12793687

>  <PUBCHEM_CONFORMER_RMSD>
0.8

>  <PUBCHEM_CONFORMER_DIVERSEORDER>
1
11
14
12
9
7
10
8
13
2
5
3
6
4

>  <PUBCHEM_MMFF94_PARTIAL_CHARGES>
17
1 -0.57
12 -0.15
13 0.37
14 -0.15
15 0.16
2 -0.66
27 0.15
28 0.4
3 -0.87
31 0.15
32 0.15
4 -0.62
5 0.3
6 0.3
7 0.54
8 0.09
9 0.41

>  <PUBCHEM_EFFECTIVE_ROTOR_COUNT>
6

>  <PUBCHEM_PHARMACOPHORE_FEATURES>
5
1 1 acceptor
1 3 cation
1 3 donor
1 4 acceptor
6 4 8 9 12 14 15 rings

>  <PUBCHEM_HEAVY_ATOM_COUNT>
16

>  <PUBCHEM_ATOM_DEF_STEREO_COUNT>
0

>  <PUBCHEM_ATOM_UDEF_STEREO_COUNT>
0

>  <PUBCHEM_BOND_DEF_STEREO_COUNT>
0

>  <PUBCHEM_BOND_UDEF_STEREO_COUNT>
0

>  <PUBCHEM_ISOTOPIC_ATOM_COUNT>
0

>  <PUBCHEM_COMPONENT_COUNT>
1

>  <PUBCHEM_CACTVS_TAUTO_COUNT>
3

>  <PUBCHEM_CONFORMER_ID>
00C3375700000001

>  <PUBCHEM_MMFF94_ENERGY>
43.6102

>  <PUBCHEM_FEATURE_SELFOVERLAP>
25.371

>  <PUBCHEM_SHAPE_FINGERPRINT>
13294875 104 17545590167818510322
13839132 238 18338232652989838572
14817 1 12229829919897301034
15375462 6 18339361997792800830
15490181 7 18121226376648240603
16945 1 18335993012033558158
17134986 127 17831860144724021621
17357990 137 17314530127166386718
19837323 101 18189628150252776203
20344682 1 17986110927353011382
20344682 6 18200307861243849390
20671657 1 17328016577979383453
21524375 3 17681558026198612321
22213442 358 17905606957946981891
22802520 49 18270414792731386511
23114952 82 17986976097249314718
23402539 116 18339348785930215878
23557571 272 18337115664971271606
23559900 14 18411975867626726162
2748010 2 18193561064664407245
298252 57 17467657908801879142
3060560 45 17615684033852379965
3250762 1 18270405979737907726
430814 3 16881915143629378959
44249140 249 18059027149888675902
7364860 26 17039786167320383213
81228 2 18337688467806575305

>  <PUBCHEM_SHAPE_MULTIPOLES>
308.46
4.64
3.57
1.27
2.29
3.5
0.03
0.13
-0.48
-2.45
-0.9
0.8
-0.46
0.98

>  <PUBCHEM_SHAPE_SELFOVERLAP>
619.538

>  <PUBCHEM_SHAPE_VOLUME>
181.6

>  <PUBCHEM_COORDINATE_TYPE>
2
5
10

$$$$
