12812773
 OpenBabel01182520543D

 33 34  0  0  0  0  0  0  0  0999 V2000
    1.7437   -2.5671    0.9602 O   0  0  0  0  0  0  0  0  0  0  0  0
   -0.4650   -0.0409    0.4499 N   0  0  0  0  0  0  0  0  0  0  0  0
    1.0049    1.8096    0.2606 N   0  0  0  0  0  0  0  0  0  0  0  0
    1.3167   -2.4465   -1.2897 N   0  0  0  0  0  0  0  0  0  0  0  0
   -1.6134    0.7947    0.7218 C   0  0  0  0  0  0  0  0  0  0  0  0
   -2.1469    1.4332   -0.5650 C   0  0  0  0  0  0  0  0  0  0  0  0
   -2.7095    0.0060    1.4463 C   0  0  0  0  0  0  0  0  0  0  0  0
   -2.8429    0.4212   -1.4751 C   0  0  0  0  0  0  0  0  0  0  0  0
   -3.4045   -1.0038    0.5328 C   0  0  0  0  0  0  0  0  0  0  0  0
   -3.9365   -0.3429   -0.7351 C   0  0  0  0  0  0  0  0  0  0  0  0
    0.8061    0.4562    0.2262 C   0  0  0  0  0  0  0  0  0  0  0  0
    1.8596   -0.4332   -0.0297 C   0  0  0  0  0  0  0  0  0  0  0  0
    3.1349    0.0739   -0.2537 C   0  0  0  0  0  0  0  0  0  0  0  0
    1.6484   -1.8737   -0.0665 C   0  0  0  0  0  0  0  0  0  0  0  0
    2.2581    2.2655    0.0379 C   0  0  0  0  0  0  0  0  0  0  0  0
    3.3463    1.4478   -0.2209 C   0  0  0  0  0  0  0  0  0  0  0  0
   -1.3089    1.5981    1.4057 H   0  0  0  0  0  0  0  0  0  0  0  0
   -1.3471    1.9293   -1.1262 H   0  0  0  0  0  0  0  0  0  0  0  0
   -2.8691    2.2153   -0.2969 H   0  0  0  0  0  0  0  0  0  0  0  0
   -3.4604    0.7079    1.8312 H   0  0  0  0  0  0  0  0  0  0  0  0
   -2.2907   -0.5186    2.3136 H   0  0  0  0  0  0  0  0  0  0  0  0
   -2.1062   -0.2868   -1.8737 H   0  0  0  0  0  0  0  0  0  0  0  0
   -3.2784    0.9419   -2.3356 H   0  0  0  0  0  0  0  0  0  0  0  0
   -4.2338   -1.4734    1.0745 H   0  0  0  0  0  0  0  0  0  0  0  0
   -2.7109   -1.8092    0.2644 H   0  0  0  0  0  0  0  0  0  0  0  0
   -4.7484    0.3467   -0.4728 H   0  0  0  0  0  0  0  0  0  0  0  0
   -4.3663   -1.1043   -1.3956 H   0  0  0  0  0  0  0  0  0  0  0  0
   -0.6540   -0.9766    0.1077 H   0  0  0  0  0  0  0  0  0  0  0  0
    3.9711   -0.5906   -0.4544 H   0  0  0  0  0  0  0  0  0  0  0  0
    2.3698    3.3440    0.0743 H   0  0  0  0  0  0  0  0  0  0  0  0
    4.3317    1.8655   -0.3926 H   0  0  0  0  0  0  0  0  0  0  0  0
    1.2257   -1.8943   -2.1366 H   0  0  0  0  0  0  0  0  0  0  0  0
    1.1520   -3.4443   -1.3712 H   0  0  0  0  0  0  0  0  0  0  0  0
  1 14  2  0  0  0  0
  2  5  1  0  0  0  0
  2 11  1  0  0  0  0
  2 28  1  0  0  0  0
  3 11  1  0  0  0  0
  3 15  2  0  0  0  0
  4 14  1  0  0  0  0
  4 32  1  0  0  0  0
  4 33  1  0  0  0  0
  5  6  1  0  0  0  0
  5  7  1  0  0  0  0
  5 17  1  0  0  0  0
  6  8  1  0  0  0  0
  6 18  1  0  0  0  0
  6 19  1  0  0  0  0
  7  9  1  0  0  0  0
  7 20  1  0  0  0  0
  7 21  1  0  0  0  0
  8 10  1  0  0  0  0
  8 22  1  0  0  0  0
  8 23  1  0  0  0  0
  9 10  1  0  0  0  0
  9 24  1  0  0  0  0
  9 25  1  0  0  0  0
 10 26  1  0  0  0  0
 10 27  1  0  0  0  0
 11 12  2  0  0  0  0
 12 13  1  0  0  0  0
 12 14  1  0  0  0  0
 13 16  2  0  0  0  0
 13 29  1  0  0  0  0
 15 16  1  0  0  0  0
 15 30  1  0  0  0  0
 16 31  1  0  0  0  0
M  END
>  <PUBCHEM_COMPOUND_CID>
12812773

>  <PUBCHEM_CONFORMER_RMSD>
0.6

>  <PUBCHEM_CONFORMER_DIVERSEORDER>
2
46
51
21
57
32
39
52
43
44
47
29
35
5
23
55
20
36
4
40
25
37
50
7
53
19
45
6
54
48
11
22
56
24
18
9
49
59
26
42
10
14
17
58
41
30
1
28
27
12
3
33
38
13
8
31
15
16
34

>  <PUBCHEM_MMFF94_PARTIAL_CHARGES>
17
1 -0.57
11 0.41
12 0.09
13 -0.15
14 0.54
15 0.16
16 -0.15
2 -0.87
28 0.4
29 0.15
3 -0.62
30 0.15
31 0.15
32 0.37
33 0.37
4 -0.8
5 0.37

>  <PUBCHEM_EFFECTIVE_ROTOR_COUNT>
4.2

>  <PUBCHEM_PHARMACOPHORE_FEATURES>
7
1 1 acceptor
1 2 cation
1 2 donor
1 3 acceptor
1 4 donor
6 3 11 12 13 15 16 rings
6 5 6 7 8 9 10 rings

>  <PUBCHEM_HEAVY_ATOM_COUNT>
16

>  <PUBCHEM_ATOM_DEF_STEREO_COUNT>
0

>  <PUBCHEM_ATOM_UDEF_STEREO_COUNT>
0

>  <PUBCHEM_BOND_DEF_STEREO_COUNT>
0

>  <PUBCHEM_BOND_UDEF_STEREO_COUNT>
0

>  <PUBCHEM_ISOTOPIC_ATOM_COUNT>
0

>  <PUBCHEM_COMPONENT_COUNT>
1

>  <PUBCHEM_CACTVS_TAUTO_COUNT>
7

>  <PUBCHEM_CONFORMER_ID>
00C381E500000002

>  <PUBCHEM_MMFF94_ENERGY>
44.0163

>  <PUBCHEM_FEATURE_SELFOVERLAP>
35.521

>  <PUBCHEM_SHAPE_FINGERPRINT>
107287 299 18336834172730334553
116883 192 17765428747342898996
12553582 1 17762065336941953362
14251717 144 18413107285854082180
15219456 202 18259984885849768369
15375358 24 18040147444565858749
15375462 6 18334572447431955245
16752209 62 16343697708644497645
16945 1 18409450288758218248
17990270 104 18269559325466632206
18186145 218 18271253827815171980
19049666 15 17968658194665000289
19422 9 17418106424431458301
200 152 18273209824704381709
20201158 50 18334295370506861441
20279233 1 18040154028602933057
204376 136 18194964269446277376
20645477 70 18413102840837341711
21160774 45 18051972812107692231
21501502 16 18337952268908694001
21524375 3 18267306615599596856
21639500 275 18340200885966918624
21730867 7 18409732876009944278
2255824 54 18343023336758235896
22802520 49 18042120973279903933
23419403 2 17112634439331438912
23557571 272 17023192651703781891
23559900 14 17822283583118798888
23598291 2 17915752976559888089
238 59 18265872770542526519
257057 1 17758948230420129178
2748010 2 18051412873010390492
2871803 45 18265889345059159399
3060560 45 18338794623801668308
33824 294 18409730707162411595
58051976 378 18409441514166250351
633830 44 18129401425847463388
6338986 31 17832413203436176058
7364860 26 18342179938377632458
74978 22 18192432957270949209
77492 1 17561370590528592545
81539 233 18260547861578112374
8272917 22 18272095959438106647

>  <PUBCHEM_SHAPE_MULTIPOLES>
308.46
6.4
2.38
1.14
2.93
0.98
-0.08
-0.56
-0.7
-2.14
-0.11
0.88
0.21
0.26

>  <PUBCHEM_SHAPE_SELFOVERLAP>
641.633

>  <PUBCHEM_SHAPE_VOLUME>
173

>  <PUBCHEM_COORDINATE_TYPE>
2
5
10

$$$$
