129656287
 OpenBabel01182520543D

 15 15  0  0  0  0  0  0  0  0999 V2000
    2.3939   -1.1117   -0.0094 O   0  0  0  0  0  0  0  0  0  0  0  0
   -1.7617    1.2283   -0.0037 N   0  0  0  0  0  0  0  0  0  0  0  0
    2.4055    1.1814    0.0028 N   0  0  0  0  0  0  0  0  0  0  0  0
    0.2970   -0.0393    0.0030 C   0  0  0  0  0  0  0  0  0  0  0  0
   -0.4258   -1.2272    0.0045 C   0  0  0  0  0  0  0  0  0  0  0  0
   -0.4120    1.1511   -0.0011 C   0  0  0  0  0  0  0  0  0  0  0  0
   -1.8158   -1.1887    0.0018 C   0  0  0  0  0  0  0  0  0  0  0  0
    1.7491   -0.0471    0.0044 C   0  0  0  0  0  0  0  0  0  0  0  0
   -2.4302    0.0532   -0.0022 C   0  0  0  0  0  0  0  0  0  0  0  0
    0.0725   -2.1927    0.0077 H   0  0  0  0  0  0  0  0  0  0  0  0
    0.0484    2.1310   -0.0031 H   0  0  0  0  0  0  0  0  0  0  0  0
   -2.4000   -2.1018    0.0028 H   0  0  0  0  0  0  0  0  0  0  0  0
   -3.5120    0.1376   -0.0044 H   0  0  0  0  0  0  0  0  0  0  0  0
    1.9566    2.0885    0.0091 H   0  0  0  0  0  0  0  0  0  0  0  0
    3.4205    1.2050   -0.0031 H   0  0  0  0  0  0  0  0  0  0  0  0
  1  8  2  0  0  0  0
  2  6  1  0  0  0  0
  2  9  2  0  0  0  0
  3  8  1  0  0  0  0
  3 14  1  0  0  0  0
  3 15  1  0  0  0  0
  4  5  1  0  0  0  0
  4  6  2  0  0  0  0
  4  8  1  0  0  0  0
  5  7  2  0  0  0  0
  5 10  1  0  0  0  0
  6 11  1  0  0  0  0
  7  9  1  0  0  0  0
  7 12  1  0  0  0  0
  9 13  1  0  0  0  0
M  ISO  2  14   2  15   2
M  END
>  <PUBCHEM_COMPOUND_CID>
129656287

>  <PUBCHEM_CONFORMER_RMSD>
0.4

>  <PUBCHEM_CONFORMER_DIVERSEORDER>
1
2

>  <PUBCHEM_MMFF94_PARTIAL_CHARGES>
15
1 -0.57
10 0.15
11 0.15
12 0.15
13 0.15
14 0.37
15 0.37
2 -0.62
3 -0.8
4 0.09
5 -0.15
6 0.16
7 -0.15
8 0.54
9 0.16

>  <PUBCHEM_EFFECTIVE_ROTOR_COUNT>
1

>  <PUBCHEM_PHARMACOPHORE_FEATURES>
4
1 1 acceptor
1 2 acceptor
1 3 donor
6 2 4 5 6 7 9 rings

>  <PUBCHEM_HEAVY_ATOM_COUNT>
9

>  <PUBCHEM_ATOM_DEF_STEREO_COUNT>
0

>  <PUBCHEM_ATOM_UDEF_STEREO_COUNT>
0

>  <PUBCHEM_BOND_DEF_STEREO_COUNT>
0

>  <PUBCHEM_BOND_UDEF_STEREO_COUNT>
0

>  <PUBCHEM_ISOTOPIC_ATOM_COUNT>
2

>  <PUBCHEM_COMPONENT_COUNT>
1

>  <PUBCHEM_CACTVS_TAUTO_COUNT>
2

>  <PUBCHEM_CONFORMER_ID>
07BA65DF00000001

>  <PUBCHEM_MMFF94_ENERGY>
25.5933

>  <PUBCHEM_FEATURE_SELFOVERLAP>
20.297

>  <PUBCHEM_SHAPE_FINGERPRINT>
10857977 72 18266731579117652921
12897270 3 18339082708569302532
14325111 11 18410573968203833441
14390081 3 18342455993021433928
16714656 1 18410857663699618239
16945 1 18266741285791292259
18185500 45 18193276518654178767
19973954 147 18411421704501061576
21040471 1 18338797793202468325
23552423 10 18260831509634422278
2748010 2 18410293618318514039
29004967 10 18262522635658385834
369184 2 18411135844304544099
5084963 1 18272084946551148419

>  <PUBCHEM_SHAPE_MULTIPOLES>
169.38
3.44
1.47
0.59
0.91
0.02
0
0.03
0
-0.08
0
-0.04
-0.01
0

>  <PUBCHEM_SHAPE_SELFOVERLAP>
353.863

>  <PUBCHEM_SHAPE_VOLUME>
95.2

>  <PUBCHEM_COORDINATE_TYPE>
2
5
10

$$$$
