129708200
 OpenBabel01182520543D

 15 15  0  0  0  0  0  0  0  0999 V2000
    2.3942   -1.1116   -0.0087 O   0  0  0  0  0  0  0  0  0  0  0  0
   -1.7613    1.2285   -0.0034 N   0  0  0  0  0  0  0  0  0  0  0  0
    2.4051    1.1815    0.0027 N   0  0  0  0  0  0  0  0  0  0  0  0
    0.2969   -0.0399    0.0023 C   0  0  0  0  0  0  0  0  0  0  0  0
   -0.4263   -1.2274    0.0039 C   0  0  0  0  0  0  0  0  0  0  0  0
   -0.4116    1.1509   -0.0013 C   0  0  0  0  0  0  0  0  0  0  0  0
   -1.8163   -1.1885    0.0018 C   0  0  0  0  0  0  0  0  0  0  0  0
    1.7495   -0.0472    0.0044 C   0  0  0  0  0  0  0  0  0  0  0  0
   -2.4302    0.0537   -0.0017 C   0  0  0  0  0  0  0  0  0  0  0  0
    0.0717   -2.1931    0.0069 H   0  0  0  0  0  0  0  0  0  0  0  0
    0.0490    2.1307   -0.0032 H   0  0  0  0  0  0  0  0  0  0  0  0
   -2.4008   -2.1013    0.0030 H   0  0  0  0  0  0  0  0  0  0  0  0
   -3.5119    0.1384   -0.0034 H   0  0  0  0  0  0  0  0  0  0  0  0
    1.9560    2.0885    0.0083 H   0  0  0  0  0  0  0  0  0  0  0  0
    3.4201    1.2054   -0.0026 H   0  0  0  0  0  0  0  0  0  0  0  0
  1  8  2  0  0  0  0
  2  6  1  0  0  0  0
  2  9  2  0  0  0  0
  3  8  1  0  0  0  0
  3 14  1  0  0  0  0
  3 15  1  0  0  0  0
  4  5  1  0  0  0  0
  4  6  2  0  0  0  0
  4  8  1  0  0  0  0
  5  7  2  0  0  0  0
  5 10  1  0  0  0  0
  6 11  1  0  0  0  0
  7  9  1  0  0  0  0
  7 12  1  0  0  0  0
  9 13  1  0  0  0  0
M  ISO  1  11   2
M  END
>  <PUBCHEM_COMPOUND_CID>
129708200

>  <PUBCHEM_CONFORMER_RMSD>
0.4

>  <PUBCHEM_CONFORMER_DIVERSEORDER>
1
2

>  <PUBCHEM_MMFF94_PARTIAL_CHARGES>
15
1 -0.57
10 0.15
11 0.15
12 0.15
13 0.15
14 0.37
15 0.37
2 -0.62
3 -0.8
4 0.09
5 -0.15
6 0.16
7 -0.15
8 0.54
9 0.16

>  <PUBCHEM_EFFECTIVE_ROTOR_COUNT>
1

>  <PUBCHEM_PHARMACOPHORE_FEATURES>
4
1 1 acceptor
1 2 acceptor
1 3 donor
6 2 4 5 6 7 9 rings

>  <PUBCHEM_HEAVY_ATOM_COUNT>
9

>  <PUBCHEM_ATOM_DEF_STEREO_COUNT>
0

>  <PUBCHEM_ATOM_UDEF_STEREO_COUNT>
0

>  <PUBCHEM_BOND_DEF_STEREO_COUNT>
0

>  <PUBCHEM_BOND_UDEF_STEREO_COUNT>
0

>  <PUBCHEM_ISOTOPIC_ATOM_COUNT>
1

>  <PUBCHEM_COMPONENT_COUNT>
1

>  <PUBCHEM_CACTVS_TAUTO_COUNT>
2

>  <PUBCHEM_CONFORMER_ID>
07BB30A800000001

>  <PUBCHEM_MMFF94_ENERGY>
25.5891

>  <PUBCHEM_FEATURE_SELFOVERLAP>
20.297

>  <PUBCHEM_SHAPE_FINGERPRINT>
10857977 72 18266731579117652921
12897270 3 18339082708569302532
14325111 11 18410573968203833441
14390081 3 18342455993021433928
16714656 1 18410857663699618239
16945 1 18266741285791292259
18185500 45 18193276518648904015
19973954 147 18411421704495786824
21040471 1 18338797793202468325
23552423 10 18260831509634422278
2748010 2 18410293618318514039
29004967 10 18262522635658385834
369184 2 18411135844304544091
5084963 1 18272084946551148419

>  <PUBCHEM_SHAPE_MULTIPOLES>
169.38
3.44
1.47
0.59
0.91
0.02
0
0.03
0
-0.08
0
-0.04
-0.01
0

>  <PUBCHEM_SHAPE_SELFOVERLAP>
353.865

>  <PUBCHEM_SHAPE_VOLUME>
95.2

>  <PUBCHEM_COORDINATE_TYPE>
2
5
10

$$$$
