129969386
 OpenBabel01182520543D

 15 15  0  0  0  0  0  0  0  0999 V2000
   -0.7134   -2.1145   -0.0005 F   0  0  0  0  0  0  0  0  0  0  0  0
   -2.7948   -0.7493    0.0003 F   0  0  0  0  0  0  0  0  0  0  0  0
   -2.6745    1.4354   -0.0007 O   0  0  0  0  0  0  0  0  0  0  0  0
    1.5557    1.3431    0.0001 N   0  0  0  0  0  0  0  0  0  0  0  0
    3.5355    0.0175   -0.0004 N   0  0  0  0  0  0  0  0  0  0  0  0
   -0.6034    0.2552    0.0006 C   0  0  0  0  0  0  0  0  0  0  0  0
    0.0157   -0.9898    0.0003 C   0  0  0  0  0  0  0  0  0  0  0  0
    1.4040   -1.0698    0.0001 C   0  0  0  0  0  0  0  0  0  0  0  0
    2.1219    0.1155    0.0000 C   0  0  0  0  0  0  0  0  0  0  0  0
    0.2043    1.3811    0.0003 C   0  0  0  0  0  0  0  0  0  0  0  0
   -2.0509    0.3756    0.0000 C   0  0  0  0  0  0  0  0  0  0  0  0
    1.8937   -2.0381   -0.0008 H   0  0  0  0  0  0  0  0  0  0  0  0
   -0.2131    2.3835    0.0001 H   0  0  0  0  0  0  0  0  0  0  0  0
    3.9619   -0.8001    0.4180 H   0  0  0  0  0  0  0  0  0  0  0  0
    4.0560    0.8859    0.0058 H   0  0  0  0  0  0  0  0  0  0  0  0
  1  7  1  0  0  0  0
  2 11  1  0  0  0  0
  3 11  2  0  0  0  0
  4  9  2  0  0  0  0
  4 10  1  0  0  0  0
  5  9  1  0  0  0  0
  5 14  1  0  0  0  0
  5 15  1  0  0  0  0
  6  7  1  0  0  0  0
  6 10  2  0  0  0  0
  6 11  1  0  0  0  0
  7  8  2  0  0  0  0
  8  9  1  0  0  0  0
  8 12  1  0  0  0  0
 10 13  1  0  0  0  0
M  END
>  <PUBCHEM_COMPOUND_CID>
129969386

>  <PUBCHEM_CONFORMER_RMSD>
0.4

>  <PUBCHEM_CONFORMER_DIVERSEORDER>
1
3
4
2
5
6

>  <PUBCHEM_MMFF94_PARTIAL_CHARGES>
15
1 -0.19
10 0.16
11 0.71
12 0.15
13 0.15
14 0.4
15 0.4
2 -0.22
3 -0.57
4 -0.62
5 -0.9
6 0.09
7 0.19
8 -0.15
9 0.41

>  <PUBCHEM_EFFECTIVE_ROTOR_COUNT>
1

>  <PUBCHEM_PHARMACOPHORE_FEATURES>
3
1 5 donor
3 4 5 9 cation
6 4 6 7 8 9 10 rings

>  <PUBCHEM_HEAVY_ATOM_COUNT>
11

>  <PUBCHEM_ATOM_DEF_STEREO_COUNT>
0

>  <PUBCHEM_ATOM_UDEF_STEREO_COUNT>
0

>  <PUBCHEM_BOND_DEF_STEREO_COUNT>
0

>  <PUBCHEM_BOND_UDEF_STEREO_COUNT>
0

>  <PUBCHEM_ISOTOPIC_ATOM_COUNT>
0

>  <PUBCHEM_COMPONENT_COUNT>
1

>  <PUBCHEM_CACTVS_TAUTO_COUNT>
5

>  <PUBCHEM_CONFORMER_ID>
07BF2CEA00000001

>  <PUBCHEM_MMFF94_ENERGY>
28.0163

>  <PUBCHEM_FEATURE_SELFOVERLAP>
15.223

>  <PUBCHEM_SHAPE_FINGERPRINT>
12032990 46 18411427197896192942
14325111 11 18410573972414424192
16945 1 18338517542222865254
193761 8 17834394905604392900
21040471 1 18410574011047939904
23235685 24 18412539886430736104
23402655 69 18196356041104158365
23552423 10 18334015012031743566
2748010 2 18266460901620184966
29004967 10 18335707100281647968
5084963 1 18201439211516762577
528886 8 18339073792074881673
53812653 166 18342172237290462768

>  <PUBCHEM_SHAPE_MULTIPOLES>
196
4.02
1.65
0.57
0.42
0.31
0
-0.55
0
-0.35
0
0.02
-0.01
0

>  <PUBCHEM_SHAPE_SELFOVERLAP>
416.313

>  <PUBCHEM_SHAPE_VOLUME>
109.5

>  <PUBCHEM_COORDINATE_TYPE>
2
5
10

$$$$
