129935091
 OpenBabel01182520543D

 24 24  0  0  0  0  0  0  0  0999 V2000
    1.3817   -1.4674   -1.1739 O   0  0  0  0  0  0  0  0  0  0  0  0
   -2.4748   -1.1704    0.5569 N   0  0  0  0  0  0  0  0  0  0  0  0
   -0.5794   -2.5679    0.2835 N   0  0  0  0  0  0  0  0  0  0  0  0
   -2.9668    2.4285   -0.0938 N   0  0  0  0  0  0  0  0  0  0  0  0
    1.8111    0.7109   -0.5226 N   0  0  0  0  0  0  0  0  0  0  0  0
    3.7768    1.6300    0.5204 N   0  0  0  0  0  0  0  0  0  0  0  0
    3.1658   -0.5339    0.9050 N   0  0  0  0  0  0  0  0  0  0  0  0
   -0.4109   -0.2370   -0.2877 C   0  0  0  0  0  0  0  0  0  0  0  0
   -1.0075    1.0154   -0.3831 C   0  0  0  0  0  0  0  0  0  0  0  0
   -1.1806   -1.2880    0.1841 C   0  0  0  0  0  0  0  0  0  0  0  0
   -2.3372    1.1760   -0.0091 C   0  0  0  0  0  0  0  0  0  0  0  0
   -3.0208    0.0619    0.4502 C   0  0  0  0  0  0  0  0  0  0  0  0
    0.9819   -0.3958   -0.6832 C   0  0  0  0  0  0  0  0  0  0  0  0
    2.8607    0.6376    0.2535 C   0  0  0  0  0  0  0  0  0  0  0  0
   -0.4551    1.8744   -0.7568 H   0  0  0  0  0  0  0  0  0  0  0  0
   -4.0606    0.1235    0.7571 H   0  0  0  0  0  0  0  0  0  0  0  0
    0.1391   -2.8211   -0.3828 H   0  0  0  0  0  0  0  0  0  0  0  0
   -1.1661   -3.3127    0.6402 H   0  0  0  0  0  0  0  0  0  0  0  0
   -2.4544    3.2323   -0.4315 H   0  0  0  0  0  0  0  0  0  0  0  0
   -3.9347    2.5292    0.1815 H   0  0  0  0  0  0  0  0  0  0  0  0
    3.6863    2.5512    0.1059 H   0  0  0  0  0  0  0  0  0  0  0  0
    4.5642    1.4720    1.1396 H   0  0  0  0  0  0  0  0  0  0  0  0
    2.6007   -1.3712    0.8204 H   0  0  0  0  0  0  0  0  0  0  0  0
    3.9804   -0.5973    1.5063 H   0  0  0  0  0  0  0  0  0  0  0  0
  1 13  2  0  0  0  0
  2 10  1  0  0  0  0
  2 12  2  0  0  0  0
  3 10  1  0  0  0  0
  3 17  1  0  0  0  0
  3 18  1  0  0  0  0
  4 11  1  0  0  0  0
  4 19  1  0  0  0  0
  4 20  1  0  0  0  0
  5 13  1  0  0  0  0
  5 14  2  0  0  0  0
  6 14  1  0  0  0  0
  6 21  1  0  0  0  0
  6 22  1  0  0  0  0
  7 14  1  0  0  0  0
  7 23  1  0  0  0  0
  7 24  1  0  0  0  0
  8  9  1  0  0  0  0
  8 10  2  0  0  0  0
  8 13  1  0  0  0  0
  9 11  2  0  0  0  0
  9 15  1  0  0  0  0
 11 12  1  0  0  0  0
 12 16  1  0  0  0  0
M  END
>  <PUBCHEM_COMPOUND_CID>
129935091

>  <PUBCHEM_CONFORMER_RMSD>
0.6

>  <PUBCHEM_CONFORMER_DIVERSEORDER>
1
11
13
6
7
14
12
10
4
5
2
9
8
3

>  <PUBCHEM_MMFF94_PARTIAL_CHARGES>
24
1 -0.57
10 0.41
11 0.1
12 0.16
13 0.69
14 0.55
15 0.15
16 0.15
17 0.4
18 0.4
19 0.4
2 -0.62
20 0.4
21 0.4
22 0.4
23 0.4
24 0.4
3 -0.9
4 -0.9
5 -0.66
6 -0.85
7 -0.85
8 0.09
9 -0.15

>  <PUBCHEM_EFFECTIVE_ROTOR_COUNT>
2

>  <PUBCHEM_PHARMACOPHORE_FEATURES>
10
1 1 acceptor
1 2 acceptor
1 3 cation
1 3 donor
1 4 cation
1 4 donor
1 5 donor
1 6 donor
1 7 donor
6 2 8 9 10 11 12 rings

>  <PUBCHEM_HEAVY_ATOM_COUNT>
14

>  <PUBCHEM_ATOM_DEF_STEREO_COUNT>
0

>  <PUBCHEM_ATOM_UDEF_STEREO_COUNT>
0

>  <PUBCHEM_BOND_DEF_STEREO_COUNT>
0

>  <PUBCHEM_BOND_UDEF_STEREO_COUNT>
0

>  <PUBCHEM_ISOTOPIC_ATOM_COUNT>
0

>  <PUBCHEM_COMPONENT_COUNT>
1

>  <PUBCHEM_CACTVS_TAUTO_COUNT>
28

>  <PUBCHEM_CONFORMER_ID>
07BEA6F300000001

>  <PUBCHEM_MMFF94_ENERGY>
67.0549

>  <PUBCHEM_FEATURE_SELFOVERLAP>
50.878

>  <PUBCHEM_SHAPE_FINGERPRINT>
10608611 8 18341614793548535148
12251169 10 18261672683427285468
12382932 28 18410577270807032296
13380535 76 18413386535895503774
13571099 52 18341329981397884453
13839132 238 18340210704177540597
14325111 11 18410292493063670460
15219456 202 18272095963369193998
15775835 57 18186803547772897808
16945 1 18265628734790537879
17804303 29 18190746336699451118
17846911 113 18412544318990005505
18186145 218 17987529099784216805
20281407 28 8214138573115609436
20510252 161 18341899614436534617
20525323 117 18341046401923985695
20645464 45 18342181046257707271
20871998 184 18198068177596449887
21028194 46 18272653450118946328
21524375 3 18270951341589313637
21947302 44 18058734585126890084
22445834 79 17822281392885938418
23211744 41 18271816687447582391
23402539 116 18268137829221259399
23559900 14 18051710849806146702
2748010 2 18264787479688701767
305870 269 18262798441352255115
369184 2 18260826029150462643
53812653 166 18048606923341324591
7364860 26 17907576930739225351
81228 2 18263943192250510939
90316 7 17676477333248720012

>  <PUBCHEM_SHAPE_MULTIPOLES>
252.36
5.47
2.15
0.84
2.86
0.2
0.06
-2.7
-1.42
-0.91
-0.06
0.3
0.14
0.48

>  <PUBCHEM_SHAPE_SELFOVERLAP>
531.362

>  <PUBCHEM_SHAPE_VOLUME>
139.3

>  <PUBCHEM_COORDINATE_TYPE>
2
5
10

$$$$
