130504940
 OpenBabel01182520543D

 26 26  0  0  0  0  0  0  0  0999 V2000
   -4.0264    1.5754    1.1725 F   0  0  0  0  0  0  0  0  0  0  0  0
   -1.8312   -1.8935   -0.3613 O   0  0  0  0  0  0  0  0  0  0  0  0
   -2.1677    0.3915   -0.5683 N   0  0  0  0  0  0  0  0  0  0  0  0
    1.9991    0.8785   -0.5230 N   0  0  0  0  0  0  0  0  0  0  0  0
    4.1001    0.2104    0.3804 N   0  0  0  0  0  0  0  0  0  0  0  0
    0.0551   -0.5142   -0.1671 C   0  0  0  0  0  0  0  0  0  0  0  0
   -3.5982    0.3332   -0.7654 C   0  0  0  0  0  0  0  0  0  0  0  0
   -1.3644   -0.7397   -0.3763 C   0  0  0  0  0  0  0  0  0  0  0  0
    0.8260   -1.4185    0.5549 C   0  0  0  0  0  0  0  0  0  0  0  0
    2.7162   -0.0231    0.1845 C   0  0  0  0  0  0  0  0  0  0  0  0
    2.1828   -1.1755    0.7388 C   0  0  0  0  0  0  0  0  0  0  0  0
    0.6837    0.6086   -0.6808 C   0  0  0  0  0  0  0  0  0  0  0  0
   -4.3436    0.4079    0.5500 C   0  0  0  0  0  0  0  0  0  0  0  0
    4.7684    1.3589   -0.1389 C   0  0  0  0  0  0  0  0  0  0  0  0
   -3.8621    1.1892   -1.3942 H   0  0  0  0  0  0  0  0  0  0  0  0
   -3.8554   -0.5879   -1.2978 H   0  0  0  0  0  0  0  0  0  0  0  0
   -1.7592    1.3184   -0.5115 H   0  0  0  0  0  0  0  0  0  0  0  0
    0.3868   -2.3146    0.9848 H   0  0  0  0  0  0  0  0  0  0  0  0
    2.7893   -1.8767    1.3027 H   0  0  0  0  0  0  0  0  0  0  0  0
    0.1650    1.3503   -1.2792 H   0  0  0  0  0  0  0  0  0  0  0  0
   -4.0685   -0.4120    1.2201 H   0  0  0  0  0  0  0  0  0  0  0  0
   -5.4254    0.3918    0.3916 H   0  0  0  0  0  0  0  0  0  0  0  0
    4.6594   -0.5708    0.7055 H   0  0  0  0  0  0  0  0  0  0  0  0
    4.3421    2.2827    0.2656 H   0  0  0  0  0  0  0  0  0  0  0  0
    4.7122    1.3906   -1.2318 H   0  0  0  0  0  0  0  0  0  0  0  0
    5.8265    1.3325    0.1397 H   0  0  0  0  0  0  0  0  0  0  0  0
  1 13  1  0  0  0  0
  2  8  2  0  0  0  0
  3  7  1  0  0  0  0
  3  8  1  0  0  0  0
  3 17  1  0  0  0  0
  4 10  2  0  0  0  0
  4 12  1  0  0  0  0
  5 10  1  0  0  0  0
  5 14  1  0  0  0  0
  5 23  1  0  0  0  0
  6  8  1  0  0  0  0
  6  9  1  0  0  0  0
  6 12  2  0  0  0  0
  7 13  1  0  0  0  0
  7 15  1  0  0  0  0
  7 16  1  0  0  0  0
  9 11  2  0  0  0  0
  9 18  1  0  0  0  0
 10 11  1  0  0  0  0
 11 19  1  0  0  0  0
 12 20  1  0  0  0  0
 13 21  1  0  0  0  0
 13 22  1  0  0  0  0
 14 24  1  0  0  0  0
 14 25  1  0  0  0  0
 14 26  1  0  0  0  0
M  END
>  <PUBCHEM_COMPOUND_CID>
130504940

>  <PUBCHEM_CONFORMER_RMSD>
0.6

>  <PUBCHEM_CONFORMER_DIVERSEORDER>
1
34
26
15
20
28
33
11
29
21
25
27
19
32
18
8
30
4
10
31
7
14
12
23
9
24
13
3
22
6
2
16
5
17

>  <PUBCHEM_MMFF94_PARTIAL_CHARGES>
19
1 -0.34
10 0.41
11 -0.15
12 0.16
13 0.34
14 0.37
17 0.37
18 0.15
19 0.15
2 -0.57
20 0.15
23 0.4
3 -0.73
4 -0.62
5 -0.87
6 0.09
7 0.3
8 0.54
9 -0.15

>  <PUBCHEM_EFFECTIVE_ROTOR_COUNT>
5

>  <PUBCHEM_PHARMACOPHORE_FEATURES>
5
1 2 acceptor
1 3 donor
1 5 donor
3 4 5 10 cation
6 4 6 9 10 11 12 rings

>  <PUBCHEM_HEAVY_ATOM_COUNT>
14

>  <PUBCHEM_ATOM_DEF_STEREO_COUNT>
0

>  <PUBCHEM_ATOM_UDEF_STEREO_COUNT>
0

>  <PUBCHEM_BOND_DEF_STEREO_COUNT>
0

>  <PUBCHEM_BOND_UDEF_STEREO_COUNT>
0

>  <PUBCHEM_ISOTOPIC_ATOM_COUNT>
0

>  <PUBCHEM_COMPONENT_COUNT>
1

>  <PUBCHEM_CACTVS_TAUTO_COUNT>
9

>  <PUBCHEM_CONFORMER_ID>
07C758EC00000001

>  <PUBCHEM_MMFF94_ENERGY>
36.1099

>  <PUBCHEM_FEATURE_SELFOVERLAP>
25.372

>  <PUBCHEM_SHAPE_FINGERPRINT>
10980938 120 18187922841940917638
12251169 10 18040999553039528431
12346645 44 18410290302572171315
12500047 106 17132108069858834934
13581323 91 13117996699916532290
13675066 3 17385437700687264926
14123260 362 18130797766954420961
14144814 61 18335697213604458143
14252887 29 17240483568117575650
14445660 50 18408602578051413182
14897335 6 18408597071977381279
14911166 2 12679462001794815404
15775835 57 18410009948571303937
17041 50 14979947077845449899
17844478 74 17022900108279877615
20279233 1 16587743110400882187
20645477 70 17823677691012379359
21119208 17 11312055452532598553
22485316 2 11746935386709128845
23402539 116 17489581251510571957
23402655 69 18337091403112421703
23557571 272 17702670002192426246
23559900 14 11239704310918941390
449060 50 18259702302481241222
449060 62 18335698347771223362
5104073 3 18261384611749807856
76465 3 10665230371082797129

>  <PUBCHEM_SHAPE_MULTIPOLES>
260.03
8.64
1.5
0.89
0.67
0.3
0.1
-4.34
1.59
-0.16
0.13
0.58
-0.12
-0.78

>  <PUBCHEM_SHAPE_SELFOVERLAP>
528.917

>  <PUBCHEM_SHAPE_VOLUME>
151.4

>  <PUBCHEM_COORDINATE_TYPE>
2
5
10

$$$$
