130504931
 OpenBabel01182520543D

 23 23  0  0  0  0  0  0  0  0999 V2000
    3.8412   -1.4869    0.1441 F   0  0  0  0  0  0  0  0  0  0  0  0
    0.8334    1.4612   -1.1169 O   0  0  0  0  0  0  0  0  0  0  0  0
    1.5817    0.1276    0.6262 N   0  0  0  0  0  0  0  0  0  0  0  0
   -3.0962    0.2683    0.2738 N   0  0  0  0  0  0  0  0  0  0  0  0
   -1.6858    2.1735    0.3132 N   0  0  0  0  0  0  0  0  0  0  0  0
   -0.7270    0.0128   -0.1344 C   0  0  0  0  0  0  0  0  0  0  0  0
    2.9415    0.6170    0.6401 C   0  0  0  0  0  0  0  0  0  0  0  0
    0.6050    0.5879   -0.2628 C   0  0  0  0  0  0  0  0  0  0  0  0
   -1.8494    0.7753    0.1461 C   0  0  0  0  0  0  0  0  0  0  0  0
   -0.8948   -1.3582   -0.2942 C   0  0  0  0  0  0  0  0  0  0  0  0
    3.8328   -0.1933   -0.2767 C   0  0  0  0  0  0  0  0  0  0  0  0
   -2.1621   -1.9169   -0.1704 C   0  0  0  0  0  0  0  0  0  0  0  0
   -3.2203   -1.0682    0.1118 C   0  0  0  0  0  0  0  0  0  0  0  0
    2.9512    1.6716    0.3473 H   0  0  0  0  0  0  0  0  0  0  0  0
    3.2932    0.5348    1.6732 H   0  0  0  0  0  0  0  0  0  0  0  0
    1.3311   -0.5845    1.3064 H   0  0  0  0  0  0  0  0  0  0  0  0
   -0.0499   -2.0039   -0.5193 H   0  0  0  0  0  0  0  0  0  0  0  0
    4.8617    0.1761   -0.2523 H   0  0  0  0  0  0  0  0  0  0  0  0
    3.4733   -0.1807   -1.3099 H   0  0  0  0  0  0  0  0  0  0  0  0
   -2.3169   -2.9829   -0.2918 H   0  0  0  0  0  0  0  0  0  0  0  0
   -4.2287   -1.4543    0.2181 H   0  0  0  0  0  0  0  0  0  0  0  0
   -0.8104    2.5180    0.6875 H   0  0  0  0  0  0  0  0  0  0  0  0
   -2.5240    2.7055    0.5139 H   0  0  0  0  0  0  0  0  0  0  0  0
  1 11  1  0  0  0  0
  2  8  2  0  0  0  0
  3  7  1  0  0  0  0
  3  8  1  0  0  0  0
  3 16  1  0  0  0  0
  4  9  1  0  0  0  0
  4 13  2  0  0  0  0
  5  9  1  0  0  0  0
  5 22  1  0  0  0  0
  5 23  1  0  0  0  0
  6  8  1  0  0  0  0
  6  9  2  0  0  0  0
  6 10  1  0  0  0  0
  7 11  1  0  0  0  0
  7 14  1  0  0  0  0
  7 15  1  0  0  0  0
 10 12  2  0  0  0  0
 10 17  1  0  0  0  0
 11 18  1  0  0  0  0
 11 19  1  0  0  0  0
 12 13  1  0  0  0  0
 12 20  1  0  0  0  0
 13 21  1  0  0  0  0
M  END
>  <PUBCHEM_COMPOUND_CID>
130504931

>  <PUBCHEM_CONFORMER_RMSD>
0.6

>  <PUBCHEM_CONFORMER_DIVERSEORDER>
2
24
5
21
7
6
11
22
13
16
12
1
4
3
15
10
9
14
23
19
18
17
8
20

>  <PUBCHEM_MMFF94_PARTIAL_CHARGES>
19
1 -0.34
10 -0.15
11 0.34
12 -0.15
13 0.16
16 0.37
17 0.15
2 -0.57
20 0.15
21 0.15
22 0.4
23 0.4
3 -0.73
4 -0.62
5 -0.9
6 0.09
7 0.3
8 0.54
9 0.41

>  <PUBCHEM_EFFECTIVE_ROTOR_COUNT>
4

>  <PUBCHEM_PHARMACOPHORE_FEATURES>
6
1 2 acceptor
1 3 donor
1 4 acceptor
1 5 cation
1 5 donor
6 4 6 9 10 12 13 rings

>  <PUBCHEM_HEAVY_ATOM_COUNT>
13

>  <PUBCHEM_ATOM_DEF_STEREO_COUNT>
0

>  <PUBCHEM_ATOM_UDEF_STEREO_COUNT>
0

>  <PUBCHEM_BOND_DEF_STEREO_COUNT>
0

>  <PUBCHEM_BOND_UDEF_STEREO_COUNT>
0

>  <PUBCHEM_ISOTOPIC_ATOM_COUNT>
0

>  <PUBCHEM_COMPONENT_COUNT>
1

>  <PUBCHEM_CACTVS_TAUTO_COUNT>
9

>  <PUBCHEM_CONFORMER_ID>
07C758E300000002

>  <PUBCHEM_MMFF94_ENERGY>
35.1117

>  <PUBCHEM_FEATURE_SELFOVERLAP>
30.446

>  <PUBCHEM_SHAPE_FINGERPRINT>
11769659 78 18340482356769929286
12032990 46 18337956813121269267
12119455 92 16845573093698279869
124424 183 17418091001198532840
12932764 1 17676475143046948488
13024252 1 14923941241598365109
14144814 61 18411698790137110530
14325111 11 18413387644265941936
14993402 34 18113897169307335959
16945 1 18411127039690185089
17804303 29 18343588429952760630
17834069 15 18341613672609316294
17834074 16 18341615863370022710
19422 9 18260833674651152986
20361792 2 17313376851143261004
20645464 45 17418103130434083423
20871998 184 18202003269635186383
23402539 116 18059849576544710341
23463225 33 18408604747316028270
23552423 10 18044657731045820015
23559900 14 18271800242381828800
2748010 2 17977961089833713053
369184 2 17560518507771777675
449060 23 18334289898782070082
7364860 26 18122628516019862204

>  <PUBCHEM_SHAPE_MULTIPOLES>
239.45
6.16
1.82
0.76
4.7
0.08
-0.06
-2
0.6
-0.79
-0.07
0.2
0.12
-0.18

>  <PUBCHEM_SHAPE_SELFOVERLAP>
491.922

>  <PUBCHEM_SHAPE_VOLUME>
138.2

>  <PUBCHEM_COORDINATE_TYPE>
2
5
10

$$$$
