130627080
 OpenBabel01182520543D

 25 25  0  0  0  0  0  0  0  0999 V2000
   -3.2132    1.5162    0.4514 O   0  0  0  0  0  0  0  0  0  0  0  0
    3.6518    1.3980   -0.2282 O   0  0  0  0  0  0  0  0  0  0  0  0
    2.6534   -0.7183    0.0509 N   0  0  0  0  0  0  0  0  0  0  0  0
    0.8863    0.8490   -0.0721 N   0  0  0  0  0  0  0  0  0  0  0  0
   -3.6939   -0.6157   -0.3236 N   0  0  0  0  0  0  0  0  0  0  0  0
   -1.3982    0.0753    0.0935 C   0  0  0  0  0  0  0  0  0  0  0  0
    1.2821   -0.4365    0.0646 C   0  0  0  0  0  0  0  0  0  0  0  0
   -0.9523   -1.2345    0.2314 C   0  0  0  0  0  0  0  0  0  0  0  0
    0.4118   -1.5037    0.2179 C   0  0  0  0  0  0  0  0  0  0  0  0
   -0.4470    1.0719   -0.0541 C   0  0  0  0  0  0  0  0  0  0  0  0
   -2.8162    0.3899    0.1005 C   0  0  0  0  0  0  0  0  0  0  0  0
    3.7151    0.1808   -0.0892 C   0  0  0  0  0  0  0  0  0  0  0  0
   -5.1277   -0.4489   -0.3953 C   0  0  0  0  0  0  0  0  0  0  0  0
    5.0481   -0.5234   -0.0477 C   0  0  0  0  0  0  0  0  0  0  0  0
   -1.6337   -2.0672    0.3778 H   0  0  0  0  0  0  0  0  0  0  0  0
    0.7649   -2.5237    0.3309 H   0  0  0  0  0  0  0  0  0  0  0  0
   -0.7258    2.1147   -0.1710 H   0  0  0  0  0  0  0  0  0  0  0  0
    2.8990   -1.7005    0.1573 H   0  0  0  0  0  0  0  0  0  0  0  0
   -3.3257   -1.4916   -0.6792 H   0  0  0  0  0  0  0  0  0  0  0  0
   -5.5989   -1.4186   -0.2196 H   0  0  0  0  0  0  0  0  0  0  0  0
   -5.3818   -0.0913   -1.3962 H   0  0  0  0  0  0  0  0  0  0  0  0
   -5.4675    0.2744    0.3500 H   0  0  0  0  0  0  0  0  0  0  0  0
    5.1015   -1.2653   -0.8495 H   0  0  0  0  0  0  0  0  0  0  0  0
    5.1744   -1.0194    0.9187 H   0  0  0  0  0  0  0  0  0  0  0  0
    5.8549    0.2023   -0.1828 H   0  0  0  0  0  0  0  0  0  0  0  0
  1 11  2  0  0  0  0
  2 12  2  0  0  0  0
  3  7  1  0  0  0  0
  3 12  1  0  0  0  0
  3 18  1  0  0  0  0
  4  7  2  0  0  0  0
  4 10  1  0  0  0  0
  5 11  1  0  0  0  0
  5 13  1  0  0  0  0
  5 19  1  0  0  0  0
  6  8  1  0  0  0  0
  6 10  2  0  0  0  0
  6 11  1  0  0  0  0
  7  9  1  0  0  0  0
  8  9  2  0  0  0  0
  8 15  1  0  0  0  0
  9 16  1  0  0  0  0
 10 17  1  0  0  0  0
 12 14  1  0  0  0  0
 13 20  1  0  0  0  0
 13 21  1  0  0  0  0
 13 22  1  0  0  0  0
 14 23  1  0  0  0  0
 14 24  1  0  0  0  0
 14 25  1  0  0  0  0
M  END
>  <PUBCHEM_COMPOUND_CID>
130627080

>  <PUBCHEM_CONFORMER_RMSD>
0.6

>  <PUBCHEM_CONFORMER_DIVERSEORDER>
1
3
7
6
2
4
8
5

>  <PUBCHEM_MMFF94_PARTIAL_CHARGES>
19
1 -0.57
10 0.16
11 0.54
12 0.57
13 0.3
14 0.06
15 0.15
16 0.15
17 0.15
18 0.37
19 0.37
2 -0.57
3 -0.55
4 -0.62
5 -0.73
6 0.09
7 0.43
8 -0.15
9 -0.15

>  <PUBCHEM_EFFECTIVE_ROTOR_COUNT>
4

>  <PUBCHEM_PHARMACOPHORE_FEATURES>
5
1 1 acceptor
1 2 acceptor
1 3 donor
1 5 donor
6 4 6 7 8 9 10 rings

>  <PUBCHEM_HEAVY_ATOM_COUNT>
14

>  <PUBCHEM_ATOM_DEF_STEREO_COUNT>
0

>  <PUBCHEM_ATOM_UDEF_STEREO_COUNT>
0

>  <PUBCHEM_BOND_DEF_STEREO_COUNT>
0

>  <PUBCHEM_BOND_UDEF_STEREO_COUNT>
0

>  <PUBCHEM_ISOTOPIC_ATOM_COUNT>
0

>  <PUBCHEM_COMPONENT_COUNT>
1

>  <PUBCHEM_CACTVS_TAUTO_COUNT>
20

>  <PUBCHEM_CONFORMER_ID>
07C9360800000001

>  <PUBCHEM_MMFF94_ENERGY>
32.7026

>  <PUBCHEM_FEATURE_SELFOVERLAP>
25.372

>  <PUBCHEM_SHAPE_FINGERPRINT>
11401426 45 18409162216785444431
11471102 20 18407758157817090772
11806522 49 18411134775263914823
12119455 92 14056996135343516331
124424 183 14418136214396916943
13380535 76 18408888438322037154
13690532 89 18408322189722481950
13862211 1 18409725162217467362
14325111 11 18410857637697744888
14911166 2 18408039628071670175
14993402 34 18333449854449327351
17834072 33 18343299301259887205
17834076 25 14634867543911724791
18186145 218 18337392647575798900
200 152 18059853960899308147
20645477 70 18059862710486688686
21267235 1 18411145735498500510
22485316 2 8790884073208094400
23402539 116 18272082781908840805
23402655 69 18339070502857796949
23559900 14 18340767152315405672
265663 24 18272931622197299742
366044 4 18408322194065318394
4990 188 18060425685787420134
69090 78 18342174483748353446

>  <PUBCHEM_SHAPE_MULTIPOLES>
261.43
9.37
1.37
0.63
0.86
0.08
0
-0.02
-1.08
-0.03
0.08
-0.12
-0.01
-0.31

>  <PUBCHEM_SHAPE_SELFOVERLAP>
536.957

>  <PUBCHEM_SHAPE_VOLUME>
149

>  <PUBCHEM_COORDINATE_TYPE>
2
5
10

$$$$
