130769412
 OpenBabel01182520543D

 15 15  0  0  0  0  0  0  0  0999 V2000
   -0.7612   -2.4001    0.0000 F   0  0  0  0  0  0  0  0  0  0  0  0
    2.7410   -0.4126   -0.0003 O   0  0  0  0  0  0  0  0  0  0  0  0
   -0.9035    1.7334   -0.0001 N   0  0  0  0  0  0  0  0  0  0  0  0
    1.4651    1.8285    0.0002 N   0  0  0  0  0  0  0  0  0  0  0  0
    0.3770   -0.3173    0.0002 C   0  0  0  0  0  0  0  0  0  0  0  0
    0.2712    1.0642    0.0001 C   0  0  0  0  0  0  0  0  0  0  0  0
   -0.7985   -1.0601    0.0001 C   0  0  0  0  0  0  0  0  0  0  0  0
   -2.0266   -0.4077    0.0000 C   0  0  0  0  0  0  0  0  0  0  0  0
   -2.0248    0.9779   -0.0001 C   0  0  0  0  0  0  0  0  0  0  0  0
    1.6603   -1.0062    0.0001 C   0  0  0  0  0  0  0  0  0  0  0  0
   -2.9553   -0.9663   -0.0001 H   0  0  0  0  0  0  0  0  0  0  0  0
   -2.9562    1.5344   -0.0002 H   0  0  0  0  0  0  0  0  0  0  0  0
    1.6352   -2.1089    0.0003 H   0  0  0  0  0  0  0  0  0  0  0  0
    2.2739    1.4614    0.4858 H   0  0  0  0  0  0  0  0  0  0  0  0
    1.3511    2.8352   -0.0124 H   0  0  0  0  0  0  0  0  0  0  0  0
  1  7  1  0  0  0  0
  2 10  2  0  0  0  0
  3  6  2  0  0  0  0
  3  9  1  0  0  0  0
  4  6  1  0  0  0  0
  4 14  1  0  0  0  0
  4 15  1  0  0  0  0
  5  6  1  0  0  0  0
  5  7  2  0  0  0  0
  5 10  1  0  0  0  0
  7  8  1  0  0  0  0
  8  9  2  0  0  0  0
  8 11  1  0  0  0  0
  9 12  1  0  0  0  0
 10 13  1  0  0  0  0
M  END
>  <PUBCHEM_COMPOUND_CID>
130769412

>  <PUBCHEM_CONFORMER_RMSD>
0.4

>  <PUBCHEM_CONFORMER_DIVERSEORDER>
1
2

>  <PUBCHEM_MMFF94_PARTIAL_CHARGES>
15
1 -0.19
10 0.42
11 0.15
12 0.15
13 0.06
14 0.4
15 0.4
2 -0.57
3 -0.62
4 -0.9
5 0.09
6 0.41
7 0.19
8 -0.15
9 0.16

>  <PUBCHEM_EFFECTIVE_ROTOR_COUNT>
1

>  <PUBCHEM_PHARMACOPHORE_FEATURES>
4
1 2 acceptor
1 4 donor
3 3 4 6 cation
6 3 5 6 7 8 9 rings

>  <PUBCHEM_HEAVY_ATOM_COUNT>
10

>  <PUBCHEM_ATOM_DEF_STEREO_COUNT>
0

>  <PUBCHEM_ATOM_UDEF_STEREO_COUNT>
0

>  <PUBCHEM_BOND_DEF_STEREO_COUNT>
0

>  <PUBCHEM_BOND_UDEF_STEREO_COUNT>
0

>  <PUBCHEM_ISOTOPIC_ATOM_COUNT>
0

>  <PUBCHEM_COMPONENT_COUNT>
1

>  <PUBCHEM_CACTVS_TAUTO_COUNT>
5

>  <PUBCHEM_CONFORMER_ID>
07CB620400000001

>  <PUBCHEM_MMFF94_ENERGY>
31.6305

>  <PUBCHEM_FEATURE_SELFOVERLAP>
20.297

>  <PUBCHEM_SHAPE_FINGERPRINT>
12423570 1 17775004561712872231
16945 1 18410575080405073862
18185500 45 18408322211207971858
193761 8 18122625213020751685
21040471 1 18194682557808099686
23552423 10 18116715325178738948
2748010 2 18266177408209272711
5084963 1 18131063810176674051

>  <PUBCHEM_SHAPE_MULTIPOLES>
182.69
2.81
2.05
0.58
0.84
0.15
0
-0.04
0
-0.13
0
-0.03
0
0

>  <PUBCHEM_SHAPE_SELFOVERLAP>
386.236

>  <PUBCHEM_SHAPE_VOLUME>
102.7

>  <PUBCHEM_COORDINATE_TYPE>
2
5
10

$$$$
