13071204
 OpenBabel01182520543D

 21 21  0  0  0  0  0  0  0  0999 V2000
    3.1409   -0.8733   -0.0131 O   0  0  0  0  0  0  0  0  0  0  0  0
   -1.2928    0.7591   -0.0012 N   0  3  0  0  0  0  0  0  0  0  0  0
   -3.2389   -0.6243   -0.0018 N   0  0  0  0  0  0  0  0  0  0  0  0
    2.7878    1.3786    0.0040 N   0  0  0  0  0  0  0  0  0  0  0  0
   -1.8379   -0.4651   -0.0002 C   0  0  0  0  0  0  0  0  0  0  0  0
    0.8955   -0.1330    0.0034 C   0  0  0  0  0  0  0  0  0  0  0  0
    0.0330    0.9538    0.0004 C   0  0  0  0  0  0  0  0  0  0  0  0
   -1.0240   -1.5888    0.0025 C   0  0  0  0  0  0  0  0  0  0  0  0
    0.3570   -1.4163    0.0045 C   0  0  0  0  0  0  0  0  0  0  0  0
   -2.1550    1.9423   -0.0037 C   0  0  0  0  0  0  0  0  0  0  0  0
    2.3345    0.0670    0.0052 C   0  0  0  0  0  0  0  0  0  0  0  0
    0.3403    1.9879   -0.0014 H   0  0  0  0  0  0  0  0  0  0  0  0
   -1.4437   -2.5903    0.0040 H   0  0  0  0  0  0  0  0  0  0  0  0
    0.9952   -2.2958    0.0071 H   0  0  0  0  0  0  0  0  0  0  0  0
   -1.5618    2.8607   -0.0060 H   0  0  0  0  0  0  0  0  0  0  0  0
   -2.7695    1.9208   -0.9082 H   0  0  0  0  0  0  0  0  0  0  0  0
   -2.7689    1.9249    0.9013 H   0  0  0  0  0  0  0  0  0  0  0  0
   -3.8489    0.1809    0.0019 H   0  0  0  0  0  0  0  0  0  0  0  0
   -3.6195   -1.4993   -0.3415 H   0  0  0  0  0  0  0  0  0  0  0  0
    2.2099    2.2091    0.0130 H   0  0  0  0  0  0  0  0  0  0  0  0
    3.7871    1.5581   -0.0036 H   0  0  0  0  0  0  0  0  0  0  0  0
  1 11  2  0  0  0  0
  2  5  2  0  0  0  0
  2  7  1  0  0  0  0
  2 10  1  0  0  0  0
  3  5  1  0  0  0  0
  3 18  1  0  0  0  0
  3 19  1  0  0  0  0
  4 11  1  0  0  0  0
  4 20  1  0  0  0  0
  4 21  1  0  0  0  0
  5  8  1  0  0  0  0
  6  7  2  0  0  0  0
  6  9  1  0  0  0  0
  6 11  1  0  0  0  0
  7 12  1  0  0  0  0
  8  9  2  0  0  0  0
  8 13  1  0  0  0  0
  9 14  1  0  0  0  0
 10 15  1  0  0  0  0
 10 16  1  0  0  0  0
 10 17  1  0  0  0  0
M  CHG  1   2   1
M  END
>  <PUBCHEM_COMPOUND_CID>
13071204

>  <PUBCHEM_CONFORMER_RMSD>
0.4

>  <PUBCHEM_CONFORMER_DIVERSEORDER>
1
2

>  <PUBCHEM_MMFF94_PARTIAL_CHARGES>
18
1 -0.57
10 0.49
11 0.54
12 0.15
13 0.15
14 0.15
18 0.4
19 0.4
2 -0.21
20 0.37
21 0.37
3 -0.9
4 -0.8
5 0.46
6 0.09
7 0.21
8 -0.15
9 -0.15

>  <PUBCHEM_EFFECTIVE_ROTOR_COUNT>
1

>  <PUBCHEM_PHARMACOPHORE_FEATURES>
5
1 1 acceptor
1 3 donor
1 4 donor
3 2 3 5 cation
6 2 5 6 7 8 9 rings

>  <PUBCHEM_HEAVY_ATOM_COUNT>
11

>  <PUBCHEM_ATOM_DEF_STEREO_COUNT>
0

>  <PUBCHEM_ATOM_UDEF_STEREO_COUNT>
0

>  <PUBCHEM_BOND_DEF_STEREO_COUNT>
0

>  <PUBCHEM_BOND_UDEF_STEREO_COUNT>
0

>  <PUBCHEM_ISOTOPIC_ATOM_COUNT>
0

>  <PUBCHEM_COMPONENT_COUNT>
1

>  <PUBCHEM_CACTVS_TAUTO_COUNT>
7

>  <PUBCHEM_CONFORMER_ID>
00C7736400000001

>  <PUBCHEM_MMFF94_ENERGY>
42.6316

>  <PUBCHEM_FEATURE_SELFOVERLAP>
25.371

>  <PUBCHEM_SHAPE_FINGERPRINT>
11206711 2 18410007719815743077
12032990 46 18337116777658386723
12897270 3 18410009931438953119
12932764 1 17561077042540958222
13380535 76 18194397793271484263
14325111 11 18410855443117266564
16945 1 18410575127612914274
193761 8 17906170646845657667
19973954 147 18410857676658593996
20653085 51 18338811017443689672
20871998 184 18128824220960766991
21040471 1 18338516326710119266
23402539 116 18342443868376184935
23402655 69 18196072380252669333
23552423 10 18260830418923719158
23559900 14 18199753536671675694
241688 4 18051968414103171379
2748010 2 18338800005020896717
369184 2 18341893017187257090
5084963 1 18273214188037564362

>  <PUBCHEM_SHAPE_MULTIPOLES>
205.56
4.35
1.8
0.58
1.21
0.29
0
0.46
-0.01
-0.56
0
-0.02
0
0

>  <PUBCHEM_SHAPE_SELFOVERLAP>
429.697

>  <PUBCHEM_SHAPE_VOLUME>
117.6

>  <PUBCHEM_COORDINATE_TYPE>
2
5
10

$$$$
