131028927
 OpenBabel01182520543D

 17 17  0  0  0  0  0  0  0  0999 V2000
    0.2575   -2.3703   -0.0219 F   0  0  0  0  0  0  0  0  0  0  0  0
    2.3341    0.0437   -1.1145 O   0  0  0  0  0  0  0  0  0  0  0  0
   -1.8616    1.1813    0.0155 N   0  0  0  0  0  0  0  0  0  0  0  0
    0.1668    2.4077   -0.0160 N   0  0  0  0  0  0  0  0  0  0  0  0
    2.3709    0.0253    1.1783 N   0  0  0  0  0  0  0  0  0  0  0  0
    0.2493    0.0032   -0.0195 C   0  0  0  0  0  0  0  0  0  0  0  0
   -0.5100    1.1622   -0.0062 C   0  0  0  0  0  0  0  0  0  0  0  0
   -0.4217   -1.2147   -0.0097 C   0  0  0  0  0  0  0  0  0  0  0  0
   -1.8119   -1.2359    0.0127 C   0  0  0  0  0  0  0  0  0  0  0  0
    1.7056    0.0192   -0.0432 C   0  0  0  0  0  0  0  0  0  0  0  0
   -2.4790   -0.0216    0.0245 C   0  0  0  0  0  0  0  0  0  0  0  0
   -2.3557   -2.1735    0.0207 H   0  0  0  0  0  0  0  0  0  0  0  0
   -3.5632    0.0163    0.0420 H   0  0  0  0  0  0  0  0  0  0  0  0
    1.0755    2.4691    0.4263 H   0  0  0  0  0  0  0  0  0  0  0  0
   -0.4144    3.2373   -0.0105 H   0  0  0  0  0  0  0  0  0  0  0  0
    1.8738    0.0136    2.0632 H   0  0  0  0  0  0  0  0  0  0  0  0
    3.3844    0.0428    1.2203 H   0  0  0  0  0  0  0  0  0  0  0  0
  1  8  1  0  0  0  0
  2 10  2  0  0  0  0
  3  7  2  0  0  0  0
  3 11  1  0  0  0  0
  4  7  1  0  0  0  0
  4 14  1  0  0  0  0
  4 15  1  0  0  0  0
  5 10  1  0  0  0  0
  5 16  1  0  0  0  0
  5 17  1  0  0  0  0
  6  7  1  0  0  0  0
  6  8  2  0  0  0  0
  6 10  1  0  0  0  0
  8  9  1  0  0  0  0
  9 11  2  0  0  0  0
  9 12  1  0  0  0  0
 11 13  1  0  0  0  0
M  END
>  <PUBCHEM_COMPOUND_CID>
131028927

>  <PUBCHEM_CONFORMER_RMSD>
0.4

>  <PUBCHEM_CONFORMER_DIVERSEORDER>
2
3
1

>  <PUBCHEM_MMFF94_PARTIAL_CHARGES>
17
1 -0.19
10 0.54
11 0.16
12 0.15
13 0.15
14 0.4
15 0.4
16 0.37
17 0.37
2 -0.57
3 -0.62
4 -0.9
5 -0.8
6 0.09
7 0.41
8 0.19
9 -0.15

>  <PUBCHEM_EFFECTIVE_ROTOR_COUNT>
1

>  <PUBCHEM_PHARMACOPHORE_FEATURES>
5
1 2 acceptor
1 4 donor
1 5 donor
3 3 4 7 cation
6 3 6 7 8 9 11 rings

>  <PUBCHEM_HEAVY_ATOM_COUNT>
11

>  <PUBCHEM_ATOM_DEF_STEREO_COUNT>
0

>  <PUBCHEM_ATOM_UDEF_STEREO_COUNT>
0

>  <PUBCHEM_BOND_DEF_STEREO_COUNT>
0

>  <PUBCHEM_BOND_UDEF_STEREO_COUNT>
0

>  <PUBCHEM_ISOTOPIC_ATOM_COUNT>
0

>  <PUBCHEM_COMPONENT_COUNT>
1

>  <PUBCHEM_CACTVS_TAUTO_COUNT>
9

>  <PUBCHEM_CONFORMER_ID>
07CF57BF00000002

>  <PUBCHEM_MMFF94_ENERGY>
39.2411

>  <PUBCHEM_FEATURE_SELFOVERLAP>
25.372

>  <PUBCHEM_SHAPE_FINGERPRINT>
10857977 72 18341042003772031537
12423570 1 17678170486607652741
12524768 44 18053105304525206734
15310529 11 16805321127929551453
16945 1 18410856568635906063
18185500 45 18334855043205063435
193761 8 17689998929820284373
20645464 45 17988915704395753002
21040471 1 18266741290059833837
23552423 10 18117003182266186111
241688 4 18268442225900059627
2748010 2 18411700988901818751
29004967 10 16343986909634175930
369184 2 18340473530453679306
5084963 1 17988092191466355587

>  <PUBCHEM_SHAPE_MULTIPOLES>
198.29
3.02
1.96
0.77
0.37
0.18
0.02
-0.12
0.07
-0.33
-0.02
0.46
-0.02
-0.01

>  <PUBCHEM_SHAPE_SELFOVERLAP>
419.538

>  <PUBCHEM_SHAPE_VOLUME>
111.6

>  <PUBCHEM_COORDINATE_TYPE>
2
5
10

$$$$
