13131590
 OpenBabel01182520543D

 41 41  0  0  0  0  0  0  0  0999 V2000
   -4.7962    0.0199    0.1287 Si  0  0  0  0  0  0  0  0  0  0  0  0
    4.7019    0.2846    0.1754 Si  0  0  0  0  0  0  0  0  0  0  0  0
    2.4085   -1.7281   -0.4555 O   0  0  0  0  0  0  0  0  0  0  0  0
   -3.3308    0.8244   -0.1263 N   0  0  0  0  0  0  0  0  0  0  0  0
    2.9478    0.4651    0.1364 N   0  0  0  0  0  0  0  0  0  0  0  0
   -1.0463    1.4456   -0.3934 N   0  0  0  0  0  0  0  0  0  0  0  0
   -6.1585    1.2844   -0.0425 C   0  0  0  0  0  0  0  0  0  0  0  0
   -4.9867   -1.3041   -1.1626 C   0  0  0  0  0  0  0  0  0  0  0  0
   -4.7982   -0.6928    1.8461 C   0  0  0  0  0  0  0  0  0  0  0  0
    5.4596    1.9305    0.6500 C   0  0  0  0  0  0  0  0  0  0  0  0
    5.1741   -1.0049    1.4438 C   0  0  0  0  0  0  0  0  0  0  0  0
    5.3209   -0.2190   -1.5152 C   0  0  0  0  0  0  0  0  0  0  0  0
   -1.9568    0.4784   -0.1422 C   0  0  0  0  0  0  0  0  0  0  0  0
    2.0890   -0.5738   -0.1821 C   0  0  0  0  0  0  0  0  0  0  0  0
    0.6438   -0.2261   -0.1614 C   0  0  0  0  0  0  0  0  0  0  0  0
   -1.6335   -0.8461    0.1045 C   0  0  0  0  0  0  0  0  0  0  0  0
   -0.2891   -1.2010    0.0928 C   0  0  0  0  0  0  0  0  0  0  0  0
    0.2505    1.0631   -0.3966 C   0  0  0  0  0  0  0  0  0  0  0  0
   -3.4250    1.8199   -0.3209 H   0  0  0  0  0  0  0  0  0  0  0  0
   -6.1514    1.7348   -1.0398 H   0  0  0  0  0  0  0  0  0  0  0  0
   -7.1381    0.8224    0.1127 H   0  0  0  0  0  0  0  0  0  0  0  0
   -6.0428    2.0865    0.6929 H   0  0  0  0  0  0  0  0  0  0  0  0
   -4.2353   -2.0914   -1.0567 H   0  0  0  0  0  0  0  0  0  0  0  0
   -5.9711   -1.7765   -1.0870 H   0  0  0  0  0  0  0  0  0  0  0  0
   -4.8951   -0.8854   -2.1696 H   0  0  0  0  0  0  0  0  0  0  0  0
   -5.7724   -1.1345    2.0783 H   0  0  0  0  0  0  0  0  0  0  0  0
   -4.0451   -1.4764    1.9656 H   0  0  0  0  0  0  0  0  0  0  0  0
   -4.5981    0.0824    2.5923 H   0  0  0  0  0  0  0  0  0  0  0  0
    2.6145    1.3794    0.4233 H   0  0  0  0  0  0  0  0  0  0  0  0
    6.5508    1.8585    0.6844 H   0  0  0  0  0  0  0  0  0  0  0  0
    5.1915    2.7044   -0.0755 H   0  0  0  0  0  0  0  0  0  0  0  0
    5.1075    2.2497    1.6355 H   0  0  0  0  0  0  0  0  0  0  0  0
    4.7924   -0.7350    2.4331 H   0  0  0  0  0  0  0  0  0  0  0  0
    4.7682   -1.9855    1.1785 H   0  0  0  0  0  0  0  0  0  0  0  0
    6.2621   -1.0977    1.5138 H   0  0  0  0  0  0  0  0  0  0  0  0
    5.0275    0.5156   -2.2710 H   0  0  0  0  0  0  0  0  0  0  0  0
    6.4125   -0.2938   -1.5205 H   0  0  0  0  0  0  0  0  0  0  0  0
    4.9144   -1.1910   -1.8097 H   0  0  0  0  0  0  0  0  0  0  0  0
   -2.3595   -1.6227    0.3073 H   0  0  0  0  0  0  0  0  0  0  0  0
   -0.0090   -2.2315    0.2881 H   0  0  0  0  0  0  0  0  0  0  0  0
    0.9330    1.8703   -0.6360 H   0  0  0  0  0  0  0  0  0  0  0  0
  1  4  1  0  0  0  0
  1  7  1  0  0  0  0
  1  8  1  0  0  0  0
  1  9  1  0  0  0  0
  2  5  1  0  0  0  0
  2 10  1  0  0  0  0
  2 11  1  0  0  0  0
  2 12  1  0  0  0  0
  3 14  2  0  0  0  0
  4 13  1  0  0  0  0
  4 19  1  0  0  0  0
  5 14  1  0  0  0  0
  5 29  1  0  0  0  0
  6 13  2  0  0  0  0
  6 18  1  0  0  0  0
  7 20  1  0  0  0  0
  7 21  1  0  0  0  0
  7 22  1  0  0  0  0
  8 23  1  0  0  0  0
  8 24  1  0  0  0  0
  8 25  1  0  0  0  0
  9 26  1  0  0  0  0
  9 27  1  0  0  0  0
  9 28  1  0  0  0  0
 10 30  1  0  0  0  0
 10 31  1  0  0  0  0
 10 32  1  0  0  0  0
 11 33  1  0  0  0  0
 11 34  1  0  0  0  0
 11 35  1  0  0  0  0
 12 36  1  0  0  0  0
 12 37  1  0  0  0  0
 12 38  1  0  0  0  0
 13 16  1  0  0  0  0
 14 15  1  0  0  0  0
 15 17  1  0  0  0  0
 15 18  2  0  0  0  0
 16 17  2  0  0  0  0
 16 39  1  0  0  0  0
 17 40  1  0  0  0  0
 18 41  1  0  0  0  0
M  END
>  <PUBCHEM_COMPOUND_CID>
13131590

>  <PUBCHEM_CONFORMER_RMSD>
0.6

>  <PUBCHEM_CONFORMER_DIVERSEORDER>
1
189
177
112
178
97
160
180
171
115
191
124
187
86
179
114
169
146
173
88
197
113
174
184
76
190
84
183
111
182
110
188
122
192
198
55
116
176
170
109
162
82
175
172
136
154
181
106
140
63
156
135
185
16
194
108
4
186
126
67
193
14
138
59
199
195
12
120
8
200
196
11
150
130
118
6
71
57
128
3
61
144
65
39
165
148
69
143
166
37
98
132
123
35
101
131
95
33
121
102
40
92
28
38
104
94
22
36
147
9
83
139
34
10
145
85
13
68
20
137
15
125
2
66
64
129
87
7
149
127
5
81
60
70
73
58
72
157
141
62
158
142
164
159
74
133
153
151
167
134
161
80
107
27
105
155
163
75
78
168
152
24
117
32
119
23
77
30
21
79
31
96
93
29
91
99
42
89
100
90
41
51
103
48
45
53
50
46
18
19
44
17
43
54
25
26
56
52
49
47

>  <PUBCHEM_MMFF94_PARTIAL_CHARGES>
23
1 0.6
10 -0.08
11 -0.08
12 -0.08
13 0.41
14 0.54
15 0.09
16 -0.15
17 -0.15
18 0.16
19 0.4
2 0.58
29 0.37
3 -0.57
39 0.15
4 -0.86
40 0.15
41 0.15
5 -0.77
6 -0.62
7 -0.08
8 -0.08
9 -0.08

>  <PUBCHEM_EFFECTIVE_ROTOR_COUNT>
5

>  <PUBCHEM_PHARMACOPHORE_FEATURES>
5
1 3 acceptor
1 4 donor
1 5 donor
3 4 6 13 cation
6 6 13 15 16 17 18 rings

>  <PUBCHEM_HEAVY_ATOM_COUNT>
18

>  <PUBCHEM_ATOM_DEF_STEREO_COUNT>
0

>  <PUBCHEM_ATOM_UDEF_STEREO_COUNT>
0

>  <PUBCHEM_BOND_DEF_STEREO_COUNT>
0

>  <PUBCHEM_BOND_UDEF_STEREO_COUNT>
0

>  <PUBCHEM_ISOTOPIC_ATOM_COUNT>
0

>  <PUBCHEM_COMPONENT_COUNT>
1

>  <PUBCHEM_CACTVS_TAUTO_COUNT>
5

>  <PUBCHEM_CONFORMER_ID>
00C85F4600000001

>  <PUBCHEM_MMFF94_ENERGY>
34.4856

>  <PUBCHEM_FEATURE_SELFOVERLAP>
25.371

>  <PUBCHEM_SHAPE_FINGERPRINT>
11287383 113 17632858646254365638
11401426 45 18409165502873210837
12236239 1 17489870440612374165
12596602 18 16988564623581986323
13533116 47 17822566115248484090
13862211 1 18408035221408954575
1420 363 18334300867980662659
14528608 73 18272088322748910052
14787075 74 18412822516537339329
15048467 5 17918274247001237313
15183329 4 9727640517946880400
15788980 27 14345794946417148771
17349148 13 18334016102927095580
17834072 33 17917991702213458598
17844677 252 18059582355900284376
19489759 90 15936403434196837493
20281389 69 18187362104375929125
220451 1 15791737394620902402
23081809 10 18186801378740391271
23402539 116 18411131442358646327
23536379 177 15267347296979918046
23559900 14 18131060580577954809
26918003 58 18040719156363353297
300161 21 18202559558463479591
34797466 226 17489593402020544700
4340502 62 16443064984655159762
4463277 17 18411699885406752309
5104073 3 18261956232561997017
5374978 207 18333445435666536144
542803 24 17312823779377269558
8988823 20 13479135722629693308

>  <PUBCHEM_SHAPE_MULTIPOLES>
386.04
15.97
1.57
1.21
0.52
0.19
-0.22
1.99
-1.57
-0.33
-0.03
-0.14
-0.31
0.14

>  <PUBCHEM_SHAPE_SELFOVERLAP>
737.368

>  <PUBCHEM_SHAPE_VOLUME>
238.8

>  <PUBCHEM_COORDINATE_TYPE>
2
5
10

$$$$
