132219781
 OpenBabel01182520543D

 35 36  0  0  0  0  0  0  0  0999 V2000
   -0.3473   -2.3677    0.3906 O   0  0  0  0  0  0  0  0  0  0  0  0
    0.7025   -0.3011    0.4512 N   0  0  0  0  0  0  0  0  0  0  0  0
    5.2512    0.6092   -0.4863 N   0  0  0  0  0  0  0  0  0  0  0  0
   -3.9708   -0.5613   -0.6771 N   0  0  0  0  0  0  0  0  0  0  0  0
   -5.4025    1.3224   -0.3964 N   0  0  0  0  0  0  0  0  0  0  0  0
    2.0500   -0.8028    0.6100 C   0  0  2  0  0  0  0  0  0  0  0  0
    3.9088    1.1637   -0.6754 C   0  0  2  0  0  0  0  0  0  0  0  0
    2.8994    0.1607    1.4461 C   0  0  0  0  0  0  0  0  0  0  0  0
    2.6951   -1.0828   -0.7517 C   0  0  0  0  0  0  0  0  0  0  0  0
    3.2532    1.4412    0.6834 C   0  0  0  0  0  0  0  0  0  0  0  0
    3.0497    0.2023   -1.5063 C   0  0  0  0  0  0  0  0  0  0  0  0
   -0.3947   -1.1408    0.3540 C   0  0  0  0  0  0  0  0  0  0  0  0
   -1.7073   -0.4705    0.1676 C   0  0  0  0  0  0  0  0  0  0  0  0
   -1.9249    0.8217    0.6327 C   0  0  0  0  0  0  0  0  0  0  0  0
   -2.7532   -1.1132   -0.4748 C   0  0  0  0  0  0  0  0  0  0  0  0
   -3.1642    1.4232    0.4436 C   0  0  0  0  0  0  0  0  0  0  0  0
   -4.1449    0.6958   -0.2114 C   0  0  0  0  0  0  0  0  0  0  0  0
    1.9808   -1.7529    1.1543 H   0  0  0  0  0  0  0  0  0  0  0  0
    4.0097    2.1098   -1.2201 H   0  0  0  0  0  0  0  0  0  0  0  0
    3.8240   -0.3463    1.7490 H   0  0  0  0  0  0  0  0  0  0  0  0
    2.3707    0.4266    2.3697 H   0  0  0  0  0  0  0  0  0  0  0  0
    3.6065   -1.6747   -0.6007 H   0  0  0  0  0  0  0  0  0  0  0  0
    2.0281   -1.6919   -1.3740 H   0  0  0  0  0  0  0  0  0  0  0  0
    2.3450    2.0360    0.5253 H   0  0  0  0  0  0  0  0  0  0  0  0
    3.9132    2.0605    1.3040 H   0  0  0  0  0  0  0  0  0  0  0  0
    3.5613   -0.0550   -2.4422 H   0  0  0  0  0  0  0  0  0  0  0  0
    2.1237    0.7151   -1.7968 H   0  0  0  0  0  0  0  0  0  0  0  0
    0.5907    0.6963    0.3051 H   0  0  0  0  0  0  0  0  0  0  0  0
    5.6972    0.4745   -1.3927 H   0  0  0  0  0  0  0  0  0  0  0  0
    5.8290    1.2766    0.0231 H   0  0  0  0  0  0  0  0  0  0  0  0
   -1.1642    1.3805    1.1696 H   0  0  0  0  0  0  0  0  0  0  0  0
   -2.6494   -2.1209   -0.8654 H   0  0  0  0  0  0  0  0  0  0  0  0
   -3.3433    2.4294    0.8084 H   0  0  0  0  0  0  0  0  0  0  0  0
   -5.6939    2.0247    0.2723 H   0  0  0  0  0  0  0  0  0  0  0  0
   -6.1181    0.7849   -0.8699 H   0  0  0  0  0  0  0  0  0  0  0  0
  1 12  2  0  0  0  0
  2  6  1  0  0  0  0
  2 12  1  0  0  0  0
  2 28  1  0  0  0  0
  3  7  1  0  0  0  0
  3 29  1  0  0  0  0
  3 30  1  0  0  0  0
  4 15  1  0  0  0  0
  4 17  2  0  0  0  0
  5 17  1  0  0  0  0
  5 34  1  0  0  0  0
  5 35  1  0  0  0  0
  6  8  1  0  0  0  0
  6  9  1  0  0  0  0
  6 18  1  1  0  0  0
  7 10  1  0  0  0  0
  7 11  1  0  0  0  0
  7 19  1  6  0  0  0
  8 10  1  0  0  0  0
  8 20  1  0  0  0  0
  8 21  1  0  0  0  0
  9 11  1  0  0  0  0
  9 22  1  0  0  0  0
  9 23  1  0  0  0  0
 10 24  1  0  0  0  0
 10 25  1  0  0  0  0
 11 26  1  0  0  0  0
 11 27  1  0  0  0  0
 12 13  1  0  0  0  0
 13 14  1  0  0  0  0
 13 15  2  0  0  0  0
 14 16  2  0  0  0  0
 14 31  1  0  0  0  0
 15 32  1  0  0  0  0
 16 17  1  0  0  0  0
 16 33  1  0  0  0  0
M  END
>  <PUBCHEM_COMPOUND_CID>
132219781

>  <PUBCHEM_CONFORMER_RMSD>
0.6

>  <PUBCHEM_CONFORMER_DIVERSEORDER>
2
41
27
33
16
32
18
26
39
10
35
25
42
24
28
15
14
12
23
17
40
30
9
13
36
11
34
21
29
31
1
8
4
5
37
3
7
38
6
19
22
20

>  <PUBCHEM_MMFF94_PARTIAL_CHARGES>
21
1 -0.57
12 0.54
13 0.09
14 -0.15
15 0.16
16 -0.15
17 0.41
2 -0.73
28 0.37
29 0.36
3 -0.99
30 0.36
31 0.15
32 0.15
33 0.15
34 0.4
35 0.4
4 -0.62
5 -0.9
6 0.3
7 0.27

>  <PUBCHEM_EFFECTIVE_ROTOR_COUNT>
4.2

>  <PUBCHEM_PHARMACOPHORE_FEATURES>
8
1 1 acceptor
1 2 donor
1 3 cation
1 3 donor
1 5 donor
3 4 5 17 cation
6 4 13 14 15 16 17 rings
6 6 7 8 9 10 11 rings

>  <PUBCHEM_HEAVY_ATOM_COUNT>
17

>  <PUBCHEM_ATOM_DEF_STEREO_COUNT>
0

>  <PUBCHEM_ATOM_UDEF_STEREO_COUNT>
0

>  <PUBCHEM_BOND_DEF_STEREO_COUNT>
0

>  <PUBCHEM_BOND_UDEF_STEREO_COUNT>
0

>  <PUBCHEM_ISOTOPIC_ATOM_COUNT>
0

>  <PUBCHEM_COMPONENT_COUNT>
1

>  <PUBCHEM_CACTVS_TAUTO_COUNT>
9

>  <PUBCHEM_CONFORMER_ID>
07E1838500000002

>  <PUBCHEM_MMFF94_ENERGY>
33.9826

>  <PUBCHEM_FEATURE_SELFOVERLAP>
40.596

>  <PUBCHEM_SHAPE_FINGERPRINT>
10498660 4 18411980260713696553
10618630 7 10303816479579965674
11046707 91 10375877367778740211
11543360 7 16845283973447569781
12173636 292 18270954662094607013
12251169 10 12324242780161685394
12633257 1 13623814989766364460
12670546 177 17775565351266108149
13583140 156 16153707678136717881
13675066 3 12757142476806464091
14123260 362 18333739034708208249
1420 369 10880004548926695276
14341114 176 13045941305112934580
15239191 94 11312063148950508188
15342168 16 17967537878284006663
15775835 57 18113336422862054416
15885798 251 9727633912572294971
1798214 20 13398633831286344924
1813 80 11959734892866082650
18186145 218 17775007881622384787
193927 3 11527948997242339509
200 152 14836412432035620826
20645477 56 18411419518700123151
20645477 70 15195566818722165204
20671657 53 14476966670667999178
20871999 31 17917139602831260623
21065199 12 12252176381356365766
212847 35 18335698313037036248
21501925 9 8430312424554839746
21503847 285 17022911146741571140
21524375 3 18335700511786316522
22854114 59 14562529574471972129
231179 274 17603302661556450604
23402539 116 18341889714779393372
23402655 69 18202567263128432276
23557571 272 18199474431435484167
23559900 14 18201721743435385550
2838139 119 17980198909914881092
3060560 45 17060338531156766524
31174 14 10953747741619118182
3472631 163 18409450306075465277
351380 180 18272369789251918916
351380 3 11383835960992695172
4028521 119 18342738516012297797
42 15 8358260345275927821
465052 167 10807636944581923677
474 4 18040439892767331173
4990 188 17775569736427574196
5281201 14 17703518743807335668
5374978 207 12324248252076569135
633830 44 18409728422419340127
7970288 3 11455896849234155492
960060 61 14908176456442701825

>  <PUBCHEM_SHAPE_MULTIPOLES>
324.06
10.24
1.68
1.11
2.72
0.3
-0.04
-4.68
-2.51
0.4
0.13
-0.95
-0.05
-0.08

>  <PUBCHEM_SHAPE_SELFOVERLAP>
673.929

>  <PUBCHEM_SHAPE_VOLUME>
181.5

>  <PUBCHEM_COORDINATE_TYPE>
2
5
10

$$$$
