132457727
 OpenBabel01182520543D

 41 41  0  0  0  0  0  0  0  0999 V2000
   -2.1811   -1.4966   -1.0551 O   0  0  0  0  0  0  0  0  0  0  0  0
   -2.3098    0.5692   -0.0116 N   0  0  0  0  0  0  0  0  0  0  0  0
    3.9338   -0.4635    0.2476 N   0  0  0  0  0  0  0  0  0  0  0  0
    1.8754    0.7062   -0.0193 N   0  0  0  0  0  0  0  0  0  0  0  0
   -3.7531    0.7105   -0.1057 C   0  0  0  0  0  0  0  0  0  0  0  0
   -4.4505   -0.4354    0.6658 C   0  0  0  0  0  0  0  0  0  0  0  0
   -4.1494    2.0501    0.5349 C   0  0  0  0  0  0  0  0  0  0  0  0
   -4.1647    0.7257   -1.5844 C   0  0  0  0  0  0  0  0  0  0  0  0
   -4.0955   -0.5254    2.1461 C   0  0  0  0  0  0  0  0  0  0  0  0
   -1.6464   -0.5387   -0.5028 C   0  0  0  0  0  0  0  0  0  0  0  0
   -0.1741   -0.5439   -0.3050 C   0  0  0  0  0  0  0  0  0  0  0  0
    4.6866    0.7431    0.3587 C   0  0  0  0  0  0  0  0  0  0  0  0
    2.5295   -0.4744    0.0588 C   0  0  0  0  0  0  0  0  0  0  0  0
    0.5336   -1.7379   -0.2199 C   0  0  0  0  0  0  0  0  0  0  0  0
    0.5371    0.6405   -0.1995 C   0  0  0  0  0  0  0  0  0  0  0  0
    1.9116   -1.7110   -0.0345 C   0  0  0  0  0  0  0  0  0  0  0  0
    6.0097    0.4549    1.0562 C   0  0  0  0  0  0  0  0  0  0  0  0
    4.9074    1.3268   -1.0305 C   0  0  0  0  0  0  0  0  0  0  0  0
   -5.5387   -0.3100    0.5854 H   0  0  0  0  0  0  0  0  0  0  0  0
   -4.2378   -1.4058    0.2042 H   0  0  0  0  0  0  0  0  0  0  0  0
   -3.7637    2.1549    1.5547 H   0  0  0  0  0  0  0  0  0  0  0  0
   -3.7371    2.8904   -0.0372 H   0  0  0  0  0  0  0  0  0  0  0  0
   -5.2377    2.1732    0.5650 H   0  0  0  0  0  0  0  0  0  0  0  0
   -4.0053   -0.2377   -2.0776 H   0  0  0  0  0  0  0  0  0  0  0  0
   -5.2305    0.9608   -1.6875 H   0  0  0  0  0  0  0  0  0  0  0  0
   -3.6013    1.4802   -2.1459 H   0  0  0  0  0  0  0  0  0  0  0  0
   -1.8030    1.2834    0.5008 H   0  0  0  0  0  0  0  0  0  0  0  0
   -4.4448    0.3486    2.7027 H   0  0  0  0  0  0  0  0  0  0  0  0
   -4.5804   -1.4027    2.5878 H   0  0  0  0  0  0  0  0  0  0  0  0
   -3.0178   -0.6320    2.3006 H   0  0  0  0  0  0  0  0  0  0  0  0
    4.1523    1.4768    0.9755 H   0  0  0  0  0  0  0  0  0  0  0  0
    4.4236   -1.3098   -0.0266 H   0  0  0  0  0  0  0  0  0  0  0  0
    0.0279   -2.6968   -0.2916 H   0  0  0  0  0  0  0  0  0  0  0  0
    0.0701    1.6160   -0.2846 H   0  0  0  0  0  0  0  0  0  0  0  0
    2.4694   -2.6392    0.0346 H   0  0  0  0  0  0  0  0  0  0  0  0
    6.5990    1.3708    1.1701 H   0  0  0  0  0  0  0  0  0  0  0  0
    5.8406    0.0352    2.0541 H   0  0  0  0  0  0  0  0  0  0  0  0
    6.6112   -0.2675    0.4926 H   0  0  0  0  0  0  0  0  0  0  0  0
    5.5089    2.2404   -0.9746 H   0  0  0  0  0  0  0  0  0  0  0  0
    3.9630    1.5844   -1.5207 H   0  0  0  0  0  0  0  0  0  0  0  0
    5.4323    0.6183   -1.6817 H   0  0  0  0  0  0  0  0  0  0  0  0
  1 10  2  0  0  0  0
  2  5  1  0  0  0  0
  2 10  1  0  0  0  0
  2 27  1  0  0  0  0
  3 12  1  0  0  0  0
  3 13  1  0  0  0  0
  3 32  1  0  0  0  0
  4 13  2  0  0  0  0
  4 15  1  0  0  0  0
  5  6  1  0  0  0  0
  5  7  1  0  0  0  0
  5  8  1  0  0  0  0
  6  9  1  0  0  0  0
  6 19  1  0  0  0  0
  6 20  1  0  0  0  0
  7 21  1  0  0  0  0
  7 22  1  0  0  0  0
  7 23  1  0  0  0  0
  8 24  1  0  0  0  0
  8 25  1  0  0  0  0
  8 26  1  0  0  0  0
  9 28  1  0  0  0  0
  9 29  1  0  0  0  0
  9 30  1  0  0  0  0
 10 11  1  0  0  0  0
 11 14  1  0  0  0  0
 11 15  2  0  0  0  0
 12 17  1  0  0  0  0
 12 18  1  0  0  0  0
 12 31  1  0  0  0  0
 13 16  1  0  0  0  0
 14 16  2  0  0  0  0
 14 33  1  0  0  0  0
 15 34  1  0  0  0  0
 16 35  1  0  0  0  0
 17 36  1  0  0  0  0
 17 37  1  0  0  0  0
 17 38  1  0  0  0  0
 18 39  1  0  0  0  0
 18 40  1  0  0  0  0
 18 41  1  0  0  0  0
M  END
>  <PUBCHEM_COMPOUND_CID>
132457727

>  <PUBCHEM_CONFORMER_RMSD>
0.8

>  <PUBCHEM_CONFORMER_DIVERSEORDER>
1
37
27
21
26
9
6
28
10
40
3
36
24
11
20
16
25
17
35
30
15
39
22
29
14
4
32
19
33
8
31
18
12
13
2
23
34
41
7
38
5

>  <PUBCHEM_MMFF94_PARTIAL_CHARGES>
17
1 -0.57
10 0.54
11 0.09
12 0.37
13 0.41
14 -0.15
15 0.16
16 -0.15
2 -0.73
27 0.37
3 -0.87
32 0.4
33 0.15
34 0.15
35 0.15
4 -0.62
5 0.3

>  <PUBCHEM_EFFECTIVE_ROTOR_COUNT>
6

>  <PUBCHEM_PHARMACOPHORE_FEATURES>
8
1 1 acceptor
1 2 donor
1 3 donor
1 9 hydrophobe
3 12 17 18 hydrophobe
3 3 4 13 cation
3 5 7 8 hydrophobe
6 4 11 13 14 15 16 rings

>  <PUBCHEM_HEAVY_ATOM_COUNT>
18

>  <PUBCHEM_ATOM_DEF_STEREO_COUNT>
0

>  <PUBCHEM_ATOM_UDEF_STEREO_COUNT>
0

>  <PUBCHEM_BOND_DEF_STEREO_COUNT>
0

>  <PUBCHEM_BOND_UDEF_STEREO_COUNT>
0

>  <PUBCHEM_ISOTOPIC_ATOM_COUNT>
0

>  <PUBCHEM_COMPONENT_COUNT>
1

>  <PUBCHEM_CACTVS_TAUTO_COUNT>
9

>  <PUBCHEM_CONFORMER_ID>
07E524FF00000001

>  <PUBCHEM_MMFF94_ENERGY>
51.9164

>  <PUBCHEM_FEATURE_SELFOVERLAP>
40.596

>  <PUBCHEM_SHAPE_FINGERPRINT>
10670039 82 18338531750750751780
11045977 3 16950285139240662744
11089746 13 17846203467598339896
11543360 7 14907889522688879012
12236239 1 17489869315410018311
12403259 118 18040997349320729972
12507557 5 18260547831608663597
12507560 40 18337117761358533971
12523318 42 16950571025317345185
12596602 18 16950280737036698272
13214271 11 17967530173276259783
13288520 33 10881395409681691562
13583140 156 17749100102269738499
13675066 3 18259706679158553726
14251718 22 14117509978650676756
14251752 14 13398363339031503592
14350574 20 10879701122297905021
14573314 32 14189578528976109976
15183329 4 15913056382933882516
15188451 53 16009032838684684867
15239154 128 18343581854373784648
15880784 105 15864074299188645832
1601671 61 18343019995669149564
17349148 13 7925912599489842932
17862501 102 7781515923478456724
18186145 218 17275100652067037546
18222031 100 10953736725233270754
18927931 339 11097852952316692049
193927 3 11530765860280860368
19784866 170 18261114036751344660
19784866 9 18408318874582755682
200 152 11314029088879133087
20281389 69 18273209811998847824
20325693 3 14261349150922254469
204376 136 18410856563998515206
20645477 56 18273213110143132892
20645477 70 18269267967749445175
20871999 31 14045739326586968074
23198884 109 15985108517572439883
23402539 116 11746932083726414331
23402655 69 17916860227761053069
23559900 14 17387701509261950706
2916195 48 17988635333336608736
293599 30 18202001036542121584
312425 54 15213290920498105968
314173 85 11818988587227816606
32948 21 13110971889935397418
449060 50 18409451375205589607
49783359 22 15140957366025679560
5104073 3 18263366901922719795
602551 16 16298396776595695106
633830 44 18127694833751288343
7495541 125 16443352017789172868
90127 26 18339933597314535979

>  <PUBCHEM_SHAPE_MULTIPOLES>
349.62
12.52
1.65
1.27
8.51
0.04
-0.29
-4.84
-3.07
-0.35
0.13
-1.25
0.02
0.14

>  <PUBCHEM_SHAPE_SELFOVERLAP>
703.75

>  <PUBCHEM_SHAPE_VOLUME>
204.9

>  <PUBCHEM_COORDINATE_TYPE>
2
5
10

$$$$
