13346795
 OpenBabel01182520543D

 16 17  0  0  0  0  0  0  0  0999 V2000
   -1.4907    2.3640    0.0009 O   0  0  0  0  0  0  0  0  0  0  0  0
   -2.0535    0.0872   -0.0003 N   0  0  0  0  0  0  0  0  0  0  0  0
    2.5385    0.5931    0.0000 N   0  0  0  0  0  0  0  0  0  0  0  0
   -1.7821   -2.2893    0.0002 N   0  0  0  0  0  0  0  0  0  0  0  0
    0.0979   -0.6888   -0.0001 C   0  0  0  0  0  0  0  0  0  0  0  0
    0.1724    0.6858   -0.0005 C   0  0  0  0  0  0  0  0  0  0  0  0
   -1.3298   -1.0015   -0.0002 C   0  0  0  0  0  0  0  0  0  0  0  0
   -1.1975    1.1804   -0.0002 C   0  0  0  0  0  0  0  0  0  0  0  0
    1.2275   -1.4714    0.0003 C   0  0  0  0  0  0  0  0  0  0  0  0
    1.3907    1.3100   -0.0004 C   0  0  0  0  0  0  0  0  0  0  0  0
    2.4265   -0.7694    0.0003 C   0  0  0  0  0  0  0  0  0  0  0  0
    1.1989   -2.5523    0.0007 H   0  0  0  0  0  0  0  0  0  0  0  0
    1.4999    2.3868   -0.0004 H   0  0  0  0  0  0  0  0  0  0  0  0
    3.3743   -1.2994    0.0007 H   0  0  0  0  0  0  0  0  0  0  0  0
   -1.1521   -3.0845    0.0005 H   0  0  0  0  0  0  0  0  0  0  0  0
   -2.7759   -2.4923    0.0005 H   0  0  0  0  0  0  0  0  0  0  0  0
  1  8  2  0  0  0  0
  2  7  2  0  0  0  0
  2  8  1  0  0  0  0
  3 10  2  0  0  0  0
  3 11  1  0  0  0  0
  4  7  1  0  0  0  0
  4 15  1  0  0  0  0
  4 16  1  0  0  0  0
  5  6  2  0  0  0  0
  5  7  1  0  0  0  0
  5  9  1  0  0  0  0
  6  8  1  0  0  0  0
  6 10  1  0  0  0  0
  9 11  2  0  0  0  0
  9 12  1  0  0  0  0
 10 13  1  0  0  0  0
 11 14  1  0  0  0  0
M  END
>  <PUBCHEM_COMPOUND_CID>
13346795

>  <PUBCHEM_CONFORMER_RMSD>
0.4

>  <PUBCHEM_CONFORMER_DIVERSEORDER>
1

>  <PUBCHEM_MMFF94_PARTIAL_CHARGES>
16
1 -0.57
10 0.16
11 0.16
12 0.15
13 0.15
14 0.15
15 0.4
16 0.4
2 -0.66
3 -0.62
4 -0.85
5 0.09
6 0.09
7 0.41
8 0.69
9 -0.15

>  <PUBCHEM_EFFECTIVE_ROTOR_COUNT>
0

>  <PUBCHEM_PHARMACOPHORE_FEATURES>
6
1 1 acceptor
1 2 donor
1 3 acceptor
1 4 donor
5 2 5 6 7 8 rings
6 3 5 6 9 10 11 rings

>  <PUBCHEM_HEAVY_ATOM_COUNT>
11

>  <PUBCHEM_ATOM_DEF_STEREO_COUNT>
0

>  <PUBCHEM_ATOM_UDEF_STEREO_COUNT>
0

>  <PUBCHEM_BOND_DEF_STEREO_COUNT>
0

>  <PUBCHEM_BOND_UDEF_STEREO_COUNT>
0

>  <PUBCHEM_ISOTOPIC_ATOM_COUNT>
0

>  <PUBCHEM_COMPONENT_COUNT>
1

>  <PUBCHEM_CACTVS_TAUTO_COUNT>
3

>  <PUBCHEM_CONFORMER_ID>
00CBA7EB00000001

>  <PUBCHEM_MMFF94_ENERGY>
34.7466

>  <PUBCHEM_FEATURE_SELFOVERLAP>
30.569

>  <PUBCHEM_SHAPE_FINGERPRINT>
12897270 3 18338797930694175974
16945 1 18410573972377332038
18185500 45 18123469646356286470
193761 8 18410856551208117030
19973954 147 18410576188770412844
21040471 1 18266741268685263108
23552423 10 18260831552668348414
23559900 14 18055079753760680254
241688 4 18266741470406217155
2748010 2 18123467447332836062
5084963 1 17986667078299142227

>  <PUBCHEM_SHAPE_MULTIPOLES>
205.56
3.05
2.19
0.58
0.94
0.01
0
0.13
0
-0.98
0
0.03
0.01
0

>  <PUBCHEM_SHAPE_SELFOVERLAP>
459.21

>  <PUBCHEM_SHAPE_VOLUME>
111.2

>  <PUBCHEM_COORDINATE_TYPE>
2
5
10

$$$$
