13425159
 OpenBabel01182520543D

 23 23  0  0  0  0  0  0  0  0999 V2000
   -1.6443   -1.3619   -0.6577 O   0  0  0  0  0  0  0  0  0  0  0  0
    0.8591   -1.8283    0.0853 N   0  0  0  0  0  0  0  0  0  0  0  0
    2.2508    0.0906    0.1077 N   0  0  0  0  0  0  0  0  0  0  0  0
   -2.5327    0.5402    0.3269 N   0  0  0  0  0  0  0  0  0  0  0  0
   -0.1439    0.3510   -0.0979 C   0  0  0  0  0  0  0  0  0  0  0  0
    1.0010   -0.4188    0.0309 C   0  0  0  0  0  0  0  0  0  0  0  0
    0.0035    1.7325   -0.1518 C   0  0  0  0  0  0  0  0  0  0  0  0
   -1.4781   -0.2276   -0.1780 C   0  0  0  0  0  0  0  0  0  0  0  0
    1.2734    2.2940   -0.0760 C   0  0  0  0  0  0  0  0  0  0  0  0
    2.3547    1.4374    0.0521 C   0  0  0  0  0  0  0  0  0  0  0  0
    1.9641   -2.7041    0.2179 C   0  0  0  0  0  0  0  0  0  0  0  0
   -3.9077    0.0952    0.3406 C   0  0  0  0  0  0  0  0  0  0  0  0
   -0.8401    2.4041   -0.2820 H   0  0  0  0  0  0  0  0  0  0  0  0
   -0.0519   -2.1875    0.3488 H   0  0  0  0  0  0  0  0  0  0  0  0
    1.4133    3.3679   -0.1229 H   0  0  0  0  0  0  0  0  0  0  0  0
   -2.3412    1.4236    0.7875 H   0  0  0  0  0  0  0  0  0  0  0  0
    3.3662    1.8251    0.1136 H   0  0  0  0  0  0  0  0  0  0  0  0
    2.5070   -2.5256    1.1520 H   0  0  0  0  0  0  0  0  0  0  0  0
    2.6607   -2.5993   -0.6205 H   0  0  0  0  0  0  0  0  0  0  0  0
    1.6202   -3.7433    0.2296 H   0  0  0  0  0  0  0  0  0  0  0  0
   -4.5565    0.9709    0.2662 H   0  0  0  0  0  0  0  0  0  0  0  0
   -4.0918   -0.4213    1.2858 H   0  0  0  0  0  0  0  0  0  0  0  0
   -4.0986   -0.5855   -0.4927 H   0  0  0  0  0  0  0  0  0  0  0  0
  1  8  2  0  0  0  0
  2  6  1  0  0  0  0
  2 11  1  0  0  0  0
  2 14  1  0  0  0  0
  3  6  1  0  0  0  0
  3 10  2  0  0  0  0
  4  8  1  0  0  0  0
  4 12  1  0  0  0  0
  4 16  1  0  0  0  0
  5  6  2  0  0  0  0
  5  7  1  0  0  0  0
  5  8  1  0  0  0  0
  7  9  2  0  0  0  0
  7 13  1  0  0  0  0
  9 10  1  0  0  0  0
  9 15  1  0  0  0  0
 10 17  1  0  0  0  0
 11 18  1  0  0  0  0
 11 19  1  0  0  0  0
 11 20  1  0  0  0  0
 12 21  1  0  0  0  0
 12 22  1  0  0  0  0
 12 23  1  0  0  0  0
M  END
>  <PUBCHEM_COMPOUND_CID>
13425159

>  <PUBCHEM_CONFORMER_RMSD>
0.6

>  <PUBCHEM_CONFORMER_DIVERSEORDER>
1
6
5
4
3
2

>  <PUBCHEM_MMFF94_PARTIAL_CHARGES>
17
1 -0.57
10 0.16
11 0.37
12 0.3
13 0.15
14 0.4
15 0.15
16 0.37
17 0.15
2 -0.87
3 -0.62
4 -0.73
5 0.09
6 0.41
7 -0.15
8 0.54
9 -0.15

>  <PUBCHEM_EFFECTIVE_ROTOR_COUNT>
3

>  <PUBCHEM_PHARMACOPHORE_FEATURES>
6
1 1 acceptor
1 2 cation
1 2 donor
1 3 acceptor
1 4 donor
6 3 5 6 7 9 10 rings

>  <PUBCHEM_HEAVY_ATOM_COUNT>
12

>  <PUBCHEM_ATOM_DEF_STEREO_COUNT>
0

>  <PUBCHEM_ATOM_UDEF_STEREO_COUNT>
0

>  <PUBCHEM_BOND_DEF_STEREO_COUNT>
0

>  <PUBCHEM_BOND_UDEF_STEREO_COUNT>
0

>  <PUBCHEM_ISOTOPIC_ATOM_COUNT>
0

>  <PUBCHEM_COMPONENT_COUNT>
1

>  <PUBCHEM_CACTVS_TAUTO_COUNT>
5

>  <PUBCHEM_CONFORMER_ID>
00CCDA0700000001

>  <PUBCHEM_MMFF94_ENERGY>
40.1712

>  <PUBCHEM_FEATURE_SELFOVERLAP>
30.446

>  <PUBCHEM_SHAPE_FINGERPRINT>
1 1 18337953501390013924
10980938 120 18409731768130103385
13380535 76 18263641930216925931
15442244 35 18196094331223792273
15775835 57 18198631119012664425
161256 15 18337392621716343796
16945 1 18410566288586127932
193761 8 18050002195381765860
20645477 70 18408879612797077767
20871998 184 17479160978103858190
20871998 22 18053386500482491630
21040471 1 17905889528335635724
23552423 10 18339921614392651631
241688 4 17904764375684206392
2748010 2 17978498746381908220
528862 383 18409445882169206251
528886 8 18338794640654502568
7364860 26 18342459227057857270
81228 2 17329702124819704442

>  <PUBCHEM_SHAPE_MULTIPOLES>
226.14
4.29
2.59
0.64
4.46
0.85
-0.01
0.11
0.56
-2.27
0.02
0.09
0.02
-0.23

>  <PUBCHEM_SHAPE_SELFOVERLAP>
464.113

>  <PUBCHEM_SHAPE_VOLUME>
130.3

>  <PUBCHEM_COORDINATE_TYPE>
2
5
10

$$$$
