13466149
 OpenBabel01182520543D

 20 20  0  0  0  0  0  0  0  0999 V2000
   -2.4524    0.1466   -1.1187 O   0  0  0  0  0  0  0  0  0  0  0  0
    0.0371   -1.8759   -0.0097 N   0  0  0  0  0  0  0  0  0  0  0  0
    1.8645   -0.3659    0.0174 N   0  0  0  0  0  0  0  0  0  0  0  0
   -2.4936    0.1698    1.1740 N   0  0  0  0  0  0  0  0  0  0  0  0
   -0.3960    0.4905   -0.0233 C   0  0  0  0  0  0  0  0  0  0  0  0
    0.5246   -0.5448   -0.0048 C   0  0  0  0  0  0  0  0  0  0  0  0
    0.0896    1.7934   -0.0188 C   0  0  0  0  0  0  0  0  0  0  0  0
    1.4617    2.0179    0.0038 C   0  0  0  0  0  0  0  0  0  0  0  0
   -1.8347    0.2658   -0.0473 C   0  0  0  0  0  0  0  0  0  0  0  0
    2.2992    0.9143    0.0211 C   0  0  0  0  0  0  0  0  0  0  0  0
    0.8999   -3.0115    0.0063 C   0  0  0  0  0  0  0  0  0  0  0  0
   -0.5903    2.6413   -0.0331 H   0  0  0  0  0  0  0  0  0  0  0  0
   -0.9272   -2.0168    0.2710 H   0  0  0  0  0  0  0  0  0  0  0  0
    1.8628    3.0249    0.0077 H   0  0  0  0  0  0  0  0  0  0  0  0
    3.3773    1.0355    0.0390 H   0  0  0  0  0  0  0  0  0  0  0  0
    1.5544   -3.0256   -0.8714 H   0  0  0  0  0  0  0  0  0  0  0  0
    0.3064   -3.9310   -0.0094 H   0  0  0  0  0  0  0  0  0  0  0  0
    1.5172   -3.0291    0.9105 H   0  0  0  0  0  0  0  0  0  0  0  0
   -2.0040    0.2565    2.0590 H   0  0  0  0  0  0  0  0  0  0  0  0
   -3.4942    0.0071    1.2157 H   0  0  0  0  0  0  0  0  0  0  0  0
  1  9  2  0  0  0  0
  2  6  1  0  0  0  0
  2 11  1  0  0  0  0
  2 13  1  0  0  0  0
  3  6  1  0  0  0  0
  3 10  2  0  0  0  0
  4  9  1  0  0  0  0
  4 19  1  0  0  0  0
  4 20  1  0  0  0  0
  5  6  2  0  0  0  0
  5  7  1  0  0  0  0
  5  9  1  0  0  0  0
  7  8  2  0  0  0  0
  7 12  1  0  0  0  0
  8 10  1  0  0  0  0
  8 14  1  0  0  0  0
 10 15  1  0  0  0  0
 11 16  1  0  0  0  0
 11 17  1  0  0  0  0
 11 18  1  0  0  0  0
M  END
>  <PUBCHEM_COMPOUND_CID>
13466149

>  <PUBCHEM_CONFORMER_RMSD>
0.4

>  <PUBCHEM_CONFORMER_DIVERSEORDER>
2
8
4
11
5
9
1
10
7
6
3

>  <PUBCHEM_MMFF94_PARTIAL_CHARGES>
17
1 -0.57
10 0.16
11 0.37
12 0.15
13 0.4
14 0.15
15 0.15
19 0.37
2 -0.87
20 0.37
3 -0.62
4 -0.8
5 0.09
6 0.41
7 -0.15
8 -0.15
9 0.54

>  <PUBCHEM_EFFECTIVE_ROTOR_COUNT>
2

>  <PUBCHEM_PHARMACOPHORE_FEATURES>
6
1 1 acceptor
1 2 cation
1 2 donor
1 3 acceptor
1 4 donor
6 3 5 6 7 8 10 rings

>  <PUBCHEM_HEAVY_ATOM_COUNT>
11

>  <PUBCHEM_ATOM_DEF_STEREO_COUNT>
0

>  <PUBCHEM_ATOM_UDEF_STEREO_COUNT>
0

>  <PUBCHEM_BOND_DEF_STEREO_COUNT>
0

>  <PUBCHEM_BOND_UDEF_STEREO_COUNT>
0

>  <PUBCHEM_ISOTOPIC_ATOM_COUNT>
0

>  <PUBCHEM_COMPONENT_COUNT>
1

>  <PUBCHEM_CACTVS_TAUTO_COUNT>
7

>  <PUBCHEM_CONFORMER_ID>
00CD7A2500000002

>  <PUBCHEM_MMFF94_ENERGY>
43.3444

>  <PUBCHEM_FEATURE_SELFOVERLAP>
30.446

>  <PUBCHEM_SHAPE_FINGERPRINT>
1 1 18409160030425492919
16945 1 18410573959471461076
18185500 45 18271238301249537917
193761 8 17762055437347868748
21040471 1 18194400219733178420
23552423 10 18193563259387336508
23559900 14 18126021579783043868
241688 4 17545315276878919664
2748010 2 18265337381336233782
29004967 10 18334863783553415601
5084963 1 18130498738361975173
81228 2 17472701806772832658

>  <PUBCHEM_SHAPE_MULTIPOLES>
205.56
2.95
2.64
0.78
0.95
2.43
0.02
-1.12
0.07
-1.04
0
0.46
-0.09
-0.01

>  <PUBCHEM_SHAPE_SELFOVERLAP>
425.378

>  <PUBCHEM_SHAPE_VOLUME>
117.5

>  <PUBCHEM_COORDINATE_TYPE>
2
5
10

$$$$
