135201993
 OpenBabel01182520543D

 27 27  0  0  0  0  0  0  0  0999 V2000
    6.6195    0.5310   -0.0066 I   0  0  0  0  0  0  0  0  0  0  0  0
    1.0668    1.9497    0.0250 O   0  0  0  0  0  0  0  0  0  0  0  0
    4.6865   -1.5626   -0.0339 O   0  0  0  0  0  0  0  0  0  0  0  0
   -2.2096   -2.5368   -1.1099 O   0  0  0  0  0  0  0  0  0  0  0  0
   -0.1999   -0.0275   -0.0047 N   0  0  0  0  0  0  0  0  0  0  0  0
   -1.7173    1.7869    0.0077 N   0  0  0  0  0  0  0  0  0  0  0  0
   -2.2391   -2.5687    1.1828 N   0  0  0  0  0  0  0  0  0  0  0  0
    2.1925   -0.1838    0.0110 C   0  0  0  0  0  0  0  0  0  0  0  0
    3.5152    0.5770    0.0276 C   0  0  0  0  0  0  0  0  0  0  0  0
    0.9700    0.7271    0.0107 C   0  0  0  0  0  0  0  0  0  0  0  0
   -1.5329    0.4476   -0.0073 C   0  0  0  0  0  0  0  0  0  0  0  0
   -2.5645   -0.4772   -0.0238 C   0  0  0  0  0  0  0  0  0  0  0  0
   -3.8693    0.0031   -0.0251 C   0  0  0  0  0  0  0  0  0  0  0  0
   -4.0994    1.3744   -0.0101 C   0  0  0  0  0  0  0  0  0  0  0  0
    4.7146   -0.3415   -0.0078 C   0  0  0  0  0  0  0  0  0  0  0  0
   -2.3340   -1.9153   -0.0413 C   0  0  0  0  0  0  0  0  0  0  0  0
   -2.9992    2.2165    0.0059 C   0  0  0  0  0  0  0  0  0  0  0  0
    2.1319   -0.8410    0.8875 H   0  0  0  0  0  0  0  0  0  0  0  0
    2.1429   -0.8221   -0.8802 H   0  0  0  0  0  0  0  0  0  0  0  0
    3.5676    1.2445   -0.8404 H   0  0  0  0  0  0  0  0  0  0  0  0
    3.5760    1.1915    0.9332 H   0  0  0  0  0  0  0  0  0  0  0  0
   -0.0882   -1.0382   -0.0150 H   0  0  0  0  0  0  0  0  0  0  0  0
   -4.7144   -0.6802   -0.0383 H   0  0  0  0  0  0  0  0  0  0  0  0
   -5.1080    1.7716   -0.0110 H   0  0  0  0  0  0  0  0  0  0  0  0
   -3.1247    3.2941    0.0180 H   0  0  0  0  0  0  0  0  0  0  0  0
   -2.3303   -2.0759    2.0655 H   0  0  0  0  0  0  0  0  0  0  0  0
   -2.0728   -3.5685    1.2291 H   0  0  0  0  0  0  0  0  0  0  0  0
  1 15  1  0  0  0  0
  2 10  2  0  0  0  0
  3 15  2  0  0  0  0
  4 16  2  0  0  0  0
  5 10  1  0  0  0  0
  5 11  1  0  0  0  0
  5 22  1  0  0  0  0
  6 11  1  0  0  0  0
  6 17  2  0  0  0  0
  7 16  1  0  0  0  0
  7 26  1  0  0  0  0
  7 27  1  0  0  0  0
  8  9  1  0  0  0  0
  8 10  1  0  0  0  0
  8 18  1  0  0  0  0
  8 19  1  0  0  0  0
  9 15  1  0  0  0  0
  9 20  1  0  0  0  0
  9 21  1  0  0  0  0
 11 12  2  0  0  0  0
 12 13  1  0  0  0  0
 12 16  1  0  0  0  0
 13 14  2  0  0  0  0
 13 23  1  0  0  0  0
 14 17  1  0  0  0  0
 14 24  1  0  0  0  0
 17 25  1  0  0  0  0
M  END
>  <PUBCHEM_COMPOUND_CID>
135201993

>  <PUBCHEM_CONFORMER_RMSD>
0.8

>  <PUBCHEM_CONFORMER_DIVERSEORDER>
1
101
134
77
72
83
132
11
36
112
52
114
125
119
117
92
137
128
45
95
79
63
130
34
96
75
118
50
136
80
57
93
46
2
99
81
71
129
108
40
126
33
135
48
113
13
68
131
70
38
140
133
24
116
124
59
107
73
98
122
60
12
87
97
85
61
121
64
54
42
110
66
142
84
39
62
15
69
76
94
102
141
5
82
41
111
109
17
31
123
89
115
91
86
90
106
3
18
88
55
22
16
53
23
100
105
103
78
58
4
30
74
47
51
28
120
65
9
139
56
6
138
29
127
26
49
104
14
8
43
44
32
21
67
27
20
10
35
7
37
25
19

>  <PUBCHEM_MMFF94_PARTIAL_CHARGES>
23
1 -0.11
10 0.57
11 0.43
12 0.09
13 -0.15
14 -0.15
15 0.62
16 0.54
17 0.16
2 -0.57
22 0.37
23 0.15
24 0.15
25 0.15
26 0.37
27 0.37
3 -0.57
4 -0.57
5 -0.55
6 -0.62
7 -0.8
8 0.06
9 0.06

>  <PUBCHEM_EFFECTIVE_ROTOR_COUNT>
6

>  <PUBCHEM_PHARMACOPHORE_FEATURES>
7
1 1 hydrophobe
1 2 acceptor
1 4 acceptor
1 5 donor
1 6 acceptor
1 7 donor
6 6 11 12 13 14 17 rings

>  <PUBCHEM_HEAVY_ATOM_COUNT>
17

>  <PUBCHEM_ATOM_DEF_STEREO_COUNT>
0

>  <PUBCHEM_ATOM_UDEF_STEREO_COUNT>
0

>  <PUBCHEM_BOND_DEF_STEREO_COUNT>
0

>  <PUBCHEM_BOND_UDEF_STEREO_COUNT>
0

>  <PUBCHEM_ISOTOPIC_ATOM_COUNT>
0

>  <PUBCHEM_COMPONENT_COUNT>
1

>  <PUBCHEM_CACTVS_TAUTO_COUNT>
40

>  <PUBCHEM_CONFORMER_ID>
080F04C900000001

>  <PUBCHEM_MMFF94_ENERGY>
42.9537

>  <PUBCHEM_FEATURE_SELFOVERLAP>
35.525

>  <PUBCHEM_SHAPE_FINGERPRINT>
10366900 7 17060051519713938744
10616163 171 18411139151635629542
11315181 36 17704072897936838264
12500047 106 18341325608994602417
12555020 224 18338787945174826967
12616971 3 17095245826489491732
12757275 245 18409730685639972250
13167823 11 18334856104721537514
13257819 101 16734656461396990917
14508225 48 18267287915475826325
14965852 173 18410574032480682333
15042514 8 18337396045501766843
15242433 33 18408604734652380022
15375358 24 17988645155684039638
17804303 29 18413390946885120689
17834072 33 18335704975164561884
18186145 218 15430321373368452716
20279233 1 17775011180215108518
20645477 56 18411136909425161737
20645477 70 16988286353193892606
20681677 155 18335420140895444656
21267235 1 18337115656692599203
221490 88 18265057014772542856
22485316 2 18410854352738703968
23402539 116 18272080583582164485
23557571 272 18271813389356057508
23559900 14 18343294895056471544
23622692 118 18057595675806553199
23728640 28 18412544327643626819
300161 21 18334570231719304220
34934 24 18336261250116072554
3545911 37 18412826876509614120
4073 2 18187369857350931570
4214541 1 18410855456297716964
5104073 3 18339079393123900936
5364581 5 18054773234412857616
559249 180 18264202522365235418
58051976 100 18408044026471479444
67856867 119 18189056559522241380
7062679 117 18408325514686448156
8809292 202 18409450314490884379
9709674 26 18343025466982906766

>  <PUBCHEM_SHAPE_MULTIPOLES>
329.24
12.47
2.4
0.73
22.25
0.89
-0.01
-0.81
0.07
-2.88
-0.04
-0.15
0.29
0.04

>  <PUBCHEM_SHAPE_SELFOVERLAP>
656.023

>  <PUBCHEM_SHAPE_VOLUME>
197.5

>  <PUBCHEM_COORDINATE_TYPE>
2
5
10

$$$$
