135307746
 OpenBabel01182520543D

 23 23  0  0  0  0  0  0  0  0999 V2000
    2.5049   -0.1351   -0.0507 S   0  0  0  0  0  0  0  0  0  0  0  0
    3.4835   -0.9649   -0.7282 O   0  0  0  0  0  0  0  0  0  0  0  0
    2.6989    1.2977    0.0527 O   0  0  0  0  0  0  0  0  0  0  0  0
   -2.0359   -2.1704   -1.1061 O   0  0  0  0  0  0  0  0  0  0  0  0
    0.9490   -0.5026   -0.6879 N   0  0  0  0  0  0  0  0  0  0  0  0
    0.1460    1.6764   -0.3275 N   0  0  0  0  0  0  0  0  0  0  0  0
   -1.4622   -2.3145    1.1094 N   0  0  0  0  0  0  0  0  0  0  0  0
   -0.1415    0.3554   -0.3405 C   0  0  0  0  0  0  0  0  0  0  0  0
   -1.3891   -0.1698   -0.0445 C   0  0  0  0  0  0  0  0  0  0  0  0
    2.3312   -0.7828    1.5969 C   0  0  0  0  0  0  0  0  0  0  0  0
   -2.4072    0.7177    0.2860 C   0  0  0  0  0  0  0  0  0  0  0  0
   -2.1502    2.0841    0.3100 C   0  0  0  0  0  0  0  0  0  0  0  0
   -1.6588   -1.5997   -0.0681 C   0  0  0  0  0  0  0  0  0  0  0  0
   -0.8685    2.5085   -0.0017 C   0  0  0  0  0  0  0  0  0  0  0  0
    0.7241   -1.4973   -0.8120 H   0  0  0  0  0  0  0  0  0  0  0  0
    3.2867   -0.6562    2.1107 H   0  0  0  0  0  0  0  0  0  0  0  0
    1.5537   -0.2255    2.1223 H   0  0  0  0  0  0  0  0  0  0  0  0
    2.0814   -1.8438    1.5369 H   0  0  0  0  0  0  0  0  0  0  0  0
   -3.4038    0.3569    0.5264 H   0  0  0  0  0  0  0  0  0  0  0  0
   -2.9283    2.7944    0.5648 H   0  0  0  0  0  0  0  0  0  0  0  0
   -0.6163    3.5637    0.0029 H   0  0  0  0  0  0  0  0  0  0  0  0
   -1.1453   -1.8681    1.9642 H   0  0  0  0  0  0  0  0  0  0  0  0
   -1.6290   -3.3145    1.1470 H   0  0  0  0  0  0  0  0  0  0  0  0
  1  2  2  0  0  0  0
  1  3  2  0  0  0  0
  1  5  1  0  0  0  0
  1 10  1  0  0  0  0
  4 13  2  0  0  0  0
  5  8  1  0  0  0  0
  5 15  1  0  0  0  0
  6  8  1  0  0  0  0
  6 14  2  0  0  0  0
  7 13  1  0  0  0  0
  7 22  1  0  0  0  0
  7 23  1  0  0  0  0
  8  9  2  0  0  0  0
  9 11  1  0  0  0  0
  9 13  1  0  0  0  0
 10 16  1  0  0  0  0
 10 17  1  0  0  0  0
 10 18  1  0  0  0  0
 11 12  2  0  0  0  0
 11 19  1  0  0  0  0
 12 14  1  0  0  0  0
 12 20  1  0  0  0  0
 14 21  1  0  0  0  0
M  END
>  <PUBCHEM_COMPOUND_CID>
135307746

>  <PUBCHEM_CONFORMER_RMSD>
0.6

>  <PUBCHEM_CONFORMER_DIVERSEORDER>
1
47
18
42
40
20
46
13
30
15
43
27
44
8
45
33
26
37
41
39
16
21
29
12
35
32
31
7
14
36
38
28
24
17
34
22
25
10
6
9
3
11
23
5
4
2
19

>  <PUBCHEM_MMFF94_PARTIAL_CHARGES>
20
1 1.33
10 0.11
11 -0.15
12 -0.15
13 0.54
14 0.16
15 0.42
19 0.15
2 -0.65
20 0.15
21 0.15
22 0.37
23 0.37
3 -0.65
4 -0.57
5 -0.76
6 -0.62
7 -0.8
8 0.51
9 0.09

>  <PUBCHEM_EFFECTIVE_ROTOR_COUNT>
3

>  <PUBCHEM_PHARMACOPHORE_FEATURES>
7
1 2 acceptor
1 3 acceptor
1 4 acceptor
1 5 donor
1 6 acceptor
1 7 donor
6 6 8 9 11 12 14 rings

>  <PUBCHEM_HEAVY_ATOM_COUNT>
14

>  <PUBCHEM_ATOM_DEF_STEREO_COUNT>
0

>  <PUBCHEM_ATOM_UDEF_STEREO_COUNT>
0

>  <PUBCHEM_BOND_DEF_STEREO_COUNT>
0

>  <PUBCHEM_BOND_UDEF_STEREO_COUNT>
0

>  <PUBCHEM_ISOTOPIC_ATOM_COUNT>
0

>  <PUBCHEM_COMPONENT_COUNT>
1

>  <PUBCHEM_CACTVS_TAUTO_COUNT>
9

>  <PUBCHEM_CONFORMER_ID>
0810A1E200000001

>  <PUBCHEM_MMFF94_ENERGY>
41.5847

>  <PUBCHEM_FEATURE_SELFOVERLAP>
35.551

>  <PUBCHEM_SHAPE_FINGERPRINT>
12716758 59 18341331080851346992
12932764 1 17821726096632790588
13538477 17 18187644669920437338
14648413 74 18272092665219471316
15076042 46 18191023413159782288
15669948 3 18409730634279699902
15775835 57 17971482797087213784
16945 1 18269828735827324517
20510252 161 18200314295026172849
20524608 308 18201156546776277135
20645476 183 17604450491154804501
20645477 70 17186427487920422303
20711985 344 18410571777564816682
20871998 184 18343030986158014455
21501502 16 18412544336169920028
21524375 3 18050851013947130765
23388829 49 17767678730358855829
23402539 116 18200581519791447181
23419403 2 17043100481792283005
23552423 10 18115591598377960428
23598294 1 18408606954596798890
257057 1 18053649545886131279
2748010 2 18268992153507462228
54338 74 18336253617932755245
6338986 31 18055337296171633007
81228 2 18410848876154449681

>  <PUBCHEM_SHAPE_MULTIPOLES>
259.41
4.4
2.64
1.02
3.51
0.22
-0.25
0.04
-0.13
-1.99
-0.06
0.37
0.45
-0.3

>  <PUBCHEM_SHAPE_SELFOVERLAP>
524.185

>  <PUBCHEM_SHAPE_VOLUME>
152.9

>  <PUBCHEM_COORDINATE_TYPE>
2
5
10

$$$$
