13533250
 OpenBabel01182520543D

 23 23  0  0  0  0  0  0  0  0999 V2000
    1.5119    1.1439   -0.5336 O   0  0  0  0  0  0  0  0  0  0  0  0
    1.8337   -0.9849    0.3275 N   0  0  0  0  0  0  0  0  0  0  0  0
   -2.6405    0.7723    0.1648 N   0  0  0  0  0  0  0  0  0  0  0  0
   -0.7753    2.2331    0.2530 N   0  0  0  0  0  0  0  0  0  0  0  0
   -0.4067   -0.1221   -0.0707 C   0  0  0  0  0  0  0  0  0  0  0  0
    3.2778   -0.9360    0.3601 C   0  0  0  0  0  0  0  0  0  0  0  0
    1.0357    0.0719   -0.1230 C   0  0  0  0  0  0  0  0  0  0  0  0
   -1.2981    0.9229    0.1121 C   0  0  0  0  0  0  0  0  0  0  0  0
   -0.9267   -1.4043   -0.2081 C   0  0  0  0  0  0  0  0  0  0  0  0
    3.7997    0.3911   -0.1506 C   0  0  0  0  0  0  0  0  0  0  0  0
   -2.3026   -1.5996   -0.1592 C   0  0  0  0  0  0  0  0  0  0  0  0
   -3.1090   -0.4884    0.0276 C   0  0  0  0  0  0  0  0  0  0  0  0
    3.5908   -1.1056    1.3949 H   0  0  0  0  0  0  0  0  0  0  0  0
    3.6505   -1.7644   -0.2499 H   0  0  0  0  0  0  0  0  0  0  0  0
    1.4045   -1.8226    0.7056 H   0  0  0  0  0  0  0  0  0  0  0  0
   -0.2989   -2.2726   -0.3854 H   0  0  0  0  0  0  0  0  0  0  0  0
    3.5730    0.5646   -1.2076 H   0  0  0  0  0  0  0  0  0  0  0  0
    3.5115    1.2384    0.4804 H   0  0  0  0  0  0  0  0  0  0  0  0
    4.8960    0.3616   -0.0989 H   0  0  0  0  0  0  0  0  0  0  0  0
   -2.7311   -2.5889   -0.2711 H   0  0  0  0  0  0  0  0  0  0  0  0
   -4.1886   -0.5869    0.0711 H   0  0  0  0  0  0  0  0  0  0  0  0
    0.1324    2.3482    0.6865 H   0  0  0  0  0  0  0  0  0  0  0  0
   -1.4515    2.9767    0.3791 H   0  0  0  0  0  0  0  0  0  0  0  0
  1  7  2  0  0  0  0
  2  6  1  0  0  0  0
  2  7  1  0  0  0  0
  2 15  1  0  0  0  0
  3  8  1  0  0  0  0
  3 12  2  0  0  0  0
  4  8  1  0  0  0  0
  4 22  1  0  0  0  0
  4 23  1  0  0  0  0
  5  7  1  0  0  0  0
  5  8  2  0  0  0  0
  5  9  1  0  0  0  0
  6 10  1  0  0  0  0
  6 13  1  0  0  0  0
  6 14  1  0  0  0  0
  9 11  2  0  0  0  0
  9 16  1  0  0  0  0
 10 17  1  0  0  0  0
 10 18  1  0  0  0  0
 10 19  1  0  0  0  0
 11 12  1  0  0  0  0
 11 20  1  0  0  0  0
 12 21  1  0  0  0  0
M  END
>  <PUBCHEM_COMPOUND_CID>
13533250

>  <PUBCHEM_CONFORMER_RMSD>
0.6

>  <PUBCHEM_CONFORMER_DIVERSEORDER>
1
3
2

>  <PUBCHEM_MMFF94_PARTIAL_CHARGES>
17
1 -0.57
11 -0.15
12 0.16
15 0.37
16 0.15
2 -0.73
20 0.15
21 0.15
22 0.4
23 0.4
3 -0.62
4 -0.9
5 0.09
6 0.3
7 0.54
8 0.41
9 -0.15

>  <PUBCHEM_EFFECTIVE_ROTOR_COUNT>
3

>  <PUBCHEM_PHARMACOPHORE_FEATURES>
6
1 1 acceptor
1 2 donor
1 3 acceptor
1 4 cation
1 4 donor
6 3 5 8 9 11 12 rings

>  <PUBCHEM_HEAVY_ATOM_COUNT>
12

>  <PUBCHEM_ATOM_DEF_STEREO_COUNT>
0

>  <PUBCHEM_ATOM_UDEF_STEREO_COUNT>
0

>  <PUBCHEM_BOND_DEF_STEREO_COUNT>
0

>  <PUBCHEM_BOND_UDEF_STEREO_COUNT>
0

>  <PUBCHEM_ISOTOPIC_ATOM_COUNT>
0

>  <PUBCHEM_COMPONENT_COUNT>
1

>  <PUBCHEM_CACTVS_TAUTO_COUNT>
5

>  <PUBCHEM_CONFORMER_ID>
00CE804200000001

>  <PUBCHEM_MMFF94_ENERGY>
45.7849

>  <PUBCHEM_FEATURE_SELFOVERLAP>
30.446

>  <PUBCHEM_SHAPE_FINGERPRINT>
12932764 1 17676765371256581726
13024252 1 17168145628874598971
14144814 61 18409448072644718730
14325111 11 18410575063441495498
15669948 3 18342451564957774022
16945 1 18339368461285993135
193761 8 17619349806093638231
20510252 161 18201721695700258665
20871998 184 18202565089954323023
23402539 116 18130777950513056127
23463225 33 18408886230682128974
23552423 10 18189336951327682567
23559900 14 18272083865058114330
2748010 2 18268423714733380085
3312278 4 18334859449825983818
369184 2 18412823586131869403
7364860 26 18198060494058206248
75552 356 18412825784970456610

>  <PUBCHEM_SHAPE_MULTIPOLES>
226.14
5.49
1.72
0.64
3.53
0.42
-0.01
-0.92
0.16
-0.63
0.05
0.07
-0.01
-0.36

>  <PUBCHEM_SHAPE_SELFOVERLAP>
467.553

>  <PUBCHEM_SHAPE_VOLUME>
128.6

>  <PUBCHEM_COORDINATE_TYPE>
2
5
10

$$$$
