135404215
 OpenBabel01182520543D

 18 19  0  0  0  0  0  0  0  0999 V2000
   -0.6317    2.6572    0.0008 O   0  0  0  0  0  0  0  0  0  0  0  0
   -1.9059    0.7283   -0.0007 N   0  0  0  0  0  0  0  0  0  0  0  0
   -0.9350   -1.4163    0.0006 N   0  0  0  0  0  0  0  0  0  0  0  0
    1.3842   -1.6489    0.0004 N   0  0  0  0  0  0  0  0  0  0  0  0
   -3.2669   -1.1723   -0.0004 N   0  0  0  0  0  0  0  0  0  0  0  0
    0.4862    0.5820    0.0001 C   0  0  0  0  0  0  0  0  0  0  0  0
    0.3290   -0.8011    0.0005 C   0  0  0  0  0  0  0  0  0  0  0  0
   -0.7141    1.4350    0.0000 C   0  0  0  0  0  0  0  0  0  0  0  0
    1.7690    1.1241   -0.0004 C   0  0  0  0  0  0  0  0  0  0  0  0
   -1.9967   -0.6595   -0.0001 C   0  0  0  0  0  0  0  0  0  0  0  0
    2.8625    0.2676   -0.0005 C   0  0  0  0  0  0  0  0  0  0  0  0
    2.6194   -1.0961   -0.0001 C   0  0  0  0  0  0  0  0  0  0  0  0
   -2.7707    1.2612   -0.0011 H   0  0  0  0  0  0  0  0  0  0  0  0
    1.9311    2.1977   -0.0008 H   0  0  0  0  0  0  0  0  0  0  0  0
    3.8750    0.6548   -0.0009 H   0  0  0  0  0  0  0  0  0  0  0  0
    3.4406   -1.8056   -0.0002 H   0  0  0  0  0  0  0  0  0  0  0  0
   -3.4290   -2.1735   -0.0001 H   0  0  0  0  0  0  0  0  0  0  0  0
   -4.0814   -0.5682   -0.0010 H   0  0  0  0  0  0  0  0  0  0  0  0
  1  8  2  0  0  0  0
  2  8  1  0  0  0  0
  2 10  1  0  0  0  0
  2 13  1  0  0  0  0
  3  7  1  0  0  0  0
  3 10  2  0  0  0  0
  4  7  1  0  0  0  0
  4 12  2  0  0  0  0
  5 10  1  0  0  0  0
  5 17  1  0  0  0  0
  5 18  1  0  0  0  0
  6  7  2  0  0  0  0
  6  8  1  0  0  0  0
  6  9  1  0  0  0  0
  9 11  2  0  0  0  0
  9 14  1  0  0  0  0
 11 12  1  0  0  0  0
 11 15  1  0  0  0  0
 12 16  1  0  0  0  0
M  END
>  <PUBCHEM_COMPOUND_CID>
135404215

>  <PUBCHEM_CONFORMER_RMSD>
0.4

>  <PUBCHEM_CONFORMER_DIVERSEORDER>
1

>  <PUBCHEM_MMFF94_PARTIAL_CHARGES>
18
1 -0.57
10 0.56
11 -0.15
12 0.16
13 0.37
14 0.15
15 0.15
16 0.15
17 0.4
18 0.4
2 -0.49
3 -0.63
4 -0.62
5 -0.85
6 0.09
7 0.49
8 0.54
9 -0.15

>  <PUBCHEM_EFFECTIVE_ROTOR_COUNT>
0

>  <PUBCHEM_PHARMACOPHORE_FEATURES>
6
1 1 acceptor
1 2 donor
1 4 acceptor
1 5 donor
6 2 3 6 7 8 10 rings
6 4 6 7 9 11 12 rings

>  <PUBCHEM_HEAVY_ATOM_COUNT>
12

>  <PUBCHEM_ATOM_DEF_STEREO_COUNT>
0

>  <PUBCHEM_ATOM_UDEF_STEREO_COUNT>
0

>  <PUBCHEM_BOND_DEF_STEREO_COUNT>
0

>  <PUBCHEM_BOND_UDEF_STEREO_COUNT>
0

>  <PUBCHEM_ISOTOPIC_ATOM_COUNT>
0

>  <PUBCHEM_COMPONENT_COUNT>
1

>  <PUBCHEM_CACTVS_TAUTO_COUNT>
-1

>  <PUBCHEM_CONFORMER_ID>
08121AB700000001

>  <PUBCHEM_MMFF94_ENERGY>
31.2006

>  <PUBCHEM_FEATURE_SELFOVERLAP>
30.525

>  <PUBCHEM_SHAPE_FINGERPRINT>
11206711 2 18337114466765073580
12032990 46 18337961180828748091
12423570 1 18051153413740672792
12897270 3 18410855451717594878
161256 15 18341894116899396888
16945 1 18266740182053171522
193761 8 17978510836577800135
19973954 147 18339081463070913134
20201158 50 18334855060469653499
20871998 184 18201717310475150951
21040471 1 17978228253794835268
21501502 16 18338239250106967376
23552423 10 18260833670060845046
23559900 14 17478895983740251526
241688 4 18410012113277240377
2748010 2 18411133632364777221
5084963 1 18273215266259004474
528886 8 18267581484531718346

>  <PUBCHEM_SHAPE_MULTIPOLES>
221.16
3.94
2.08
0.58
0.36
0.86
0
-1.3
0
0.34
0
-0.04
0
0

>  <PUBCHEM_SHAPE_SELFOVERLAP>
484.283

>  <PUBCHEM_SHAPE_VOLUME>
117.8

>  <PUBCHEM_COORDINATE_TYPE>
2
5
10

$$$$
