135440277
 OpenBabel01182520543D

 16 17  0  0  0  0  0  0  0  0999 V2000
   -1.7327   -2.0924    0.0004 O   0  0  0  0  0  0  0  0  0  0  0  0
   -2.2924    0.1499   -0.0006 N   0  0  0  0  0  0  0  0  0  0  0  0
   -0.6511    1.8543    0.0004 N   0  0  0  0  0  0  0  0  0  0  0  0
    1.6144    1.2943    0.0002 N   0  0  0  0  0  0  0  0  0  0  0  0
    0.0168   -0.5075    0.0002 C   0  0  0  0  0  0  0  0  0  0  0  0
    0.3358    0.8504    0.0000 C   0  0  0  0  0  0  0  0  0  0  0  0
   -1.4037   -0.9125    0.0001 C   0  0  0  0  0  0  0  0  0  0  0  0
    1.0431   -1.4487    0.0000 C   0  0  0  0  0  0  0  0  0  0  0  0
    2.3609   -1.0089   -0.0005 C   0  0  0  0  0  0  0  0  0  0  0  0
   -1.8820    1.4639   -0.0003 C   0  0  0  0  0  0  0  0  0  0  0  0
    2.5910    0.3573    0.0000 C   0  0  0  0  0  0  0  0  0  0  0  0
    0.8354   -2.5144   -0.0001 H   0  0  0  0  0  0  0  0  0  0  0  0
   -3.2877   -0.0533   -0.0010 H   0  0  0  0  0  0  0  0  0  0  0  0
    3.1843   -1.7140   -0.0008 H   0  0  0  0  0  0  0  0  0  0  0  0
   -2.7163    2.1815   -0.0005 H   0  0  0  0  0  0  0  0  0  0  0  0
    3.6032    0.7486    0.0001 H   0  0  0  0  0  0  0  0  0  0  0  0
  1  7  2  0  0  0  0
  2  7  1  0  0  0  0
  2 10  1  0  0  0  0
  2 13  1  0  0  0  0
  3  6  1  0  0  0  0
  3 10  2  0  0  0  0
  4  6  1  0  0  0  0
  4 11  2  0  0  0  0
  5  6  2  0  0  0  0
  5  7  1  0  0  0  0
  5  8  1  0  0  0  0
  8  9  2  0  0  0  0
  8 12  1  0  0  0  0
  9 11  1  0  0  0  0
  9 14  1  0  0  0  0
 10 15  1  0  0  0  0
 11 16  1  0  0  0  0
M  END
>  <PUBCHEM_COMPOUND_CID>
135440277

>  <PUBCHEM_CONFORMER_RMSD>
0.4

>  <PUBCHEM_CONFORMER_DIVERSEORDER>
1

>  <PUBCHEM_MMFF94_PARTIAL_CHARGES>
16
1 -0.57
10 0.45
11 0.16
12 0.15
13 0.37
14 0.15
15 0.06
16 0.15
2 -0.49
3 -0.63
4 -0.62
5 0.09
6 0.49
7 0.54
8 -0.15
9 -0.15

>  <PUBCHEM_EFFECTIVE_ROTOR_COUNT>
0

>  <PUBCHEM_PHARMACOPHORE_FEATURES>
5
1 1 acceptor
1 2 donor
1 4 acceptor
6 2 3 5 6 7 10 rings
6 4 5 6 8 9 11 rings

>  <PUBCHEM_HEAVY_ATOM_COUNT>
11

>  <PUBCHEM_ATOM_DEF_STEREO_COUNT>
0

>  <PUBCHEM_ATOM_UDEF_STEREO_COUNT>
0

>  <PUBCHEM_BOND_DEF_STEREO_COUNT>
0

>  <PUBCHEM_BOND_UDEF_STEREO_COUNT>
0

>  <PUBCHEM_ISOTOPIC_ATOM_COUNT>
0

>  <PUBCHEM_COMPONENT_COUNT>
1

>  <PUBCHEM_CACTVS_TAUTO_COUNT>
-1

>  <PUBCHEM_CONFORMER_ID>
0812A79500000001

>  <PUBCHEM_MMFF94_ENERGY>
27.9669

>  <PUBCHEM_FEATURE_SELFOVERLAP>
25.408

>  <PUBCHEM_SHAPE_FINGERPRINT>
12524768 44 18340772541745124583
12897270 3 18411136982528925870
16945 1 18410573946628672740
18185500 45 18267303320816498279
193761 8 18338799025805503652
19973954 147 18410577296782232958
20871998 184 18273497892144805127
21040471 1 18266740173463334372
23552423 10 18260832639268629086
23559900 14 18199476455478177102
241688 4 18338234997846725553
2748010 2 18267302225604976206
5084963 1 17914325784480875329
528886 8 18411695508544719522
66348 1 18411135869995226574

>  <PUBCHEM_SHAPE_MULTIPOLES>
205.56
3.33
2
0.58
0.67
0.22
0
-0.02
0
-0.61
0
0.03
0.01
0

>  <PUBCHEM_SHAPE_SELFOVERLAP>
450.909

>  <PUBCHEM_SHAPE_VOLUME>
108.9

>  <PUBCHEM_COORDINATE_TYPE>
2
5
10

$$$$
