135496111
 OpenBabel01182520543D

 20 21  0  0  0  0  0  0  0  0999 V2000
    3.1201    0.1003    0.0000 O   0  0  0  0  0  0  0  0  0  0  0  0
   -0.4043   -2.8501    0.0000 O   0  0  0  0  0  0  0  0  0  0  0  0
    1.3506   -1.3468    0.0000 N   0  0  0  0  0  0  0  0  0  0  0  0
    0.9963    0.9972    0.0000 N   0  0  0  0  0  0  0  0  0  0  0  0
   -1.1758    1.8491    0.0000 N   0  0  0  0  0  0  0  0  0  0  0  0
   -0.9134   -0.5448    0.0000 C   0  0  0  0  0  0  0  0  0  0  0  0
   -0.3891    0.7479    0.0001 C   0  0  0  0  0  0  0  0  0  0  0  0
    0.0107   -1.6975    0.0000 C   0  0  0  0  0  0  0  0  0  0  0  0
   -2.2951   -0.7194    0.0000 C   0  0  0  0  0  0  0  0  0  0  0  0
    1.7746   -0.0355    0.0000 C   0  0  0  0  0  0  0  0  0  0  0  0
   -3.1161    0.4012    0.0000 C   0  0  0  0  0  0  0  0  0  0  0  0
   -2.5142    1.6490    0.0000 C   0  0  0  0  0  0  0  0  0  0  0  0
    3.5557    1.4494    0.0000 C   0  0  0  0  0  0  0  0  0  0  0  0
    2.0474   -2.0854    0.0001 H   0  0  0  0  0  0  0  0  0  0  0  0
   -2.7418   -1.7090    0.0000 H   0  0  0  0  0  0  0  0  0  0  0  0
   -4.1956    0.3018    0.0000 H   0  0  0  0  0  0  0  0  0  0  0  0
   -3.1140    2.5534   -0.0001 H   0  0  0  0  0  0  0  0  0  0  0  0
    4.6500    1.4480    0.0000 H   0  0  0  0  0  0  0  0  0  0  0  0
    3.2254    1.9731    0.9035 H   0  0  0  0  0  0  0  0  0  0  0  0
    3.2254    1.9730   -0.9035 H   0  0  0  0  0  0  0  0  0  0  0  0
  1 10  1  0  0  0  0
  1 13  1  0  0  0  0
  2  8  2  0  0  0  0
  3  8  1  0  0  0  0
  3 10  1  0  0  0  0
  3 14  1  0  0  0  0
  4  7  1  0  0  0  0
  4 10  2  0  0  0  0
  5  7  1  0  0  0  0
  5 12  2  0  0  0  0
  6  7  2  0  0  0  0
  6  8  1  0  0  0  0
  6  9  1  0  0  0  0
  9 11  2  0  0  0  0
  9 15  1  0  0  0  0
 11 12  1  0  0  0  0
 11 16  1  0  0  0  0
 12 17  1  0  0  0  0
 13 18  1  0  0  0  0
 13 19  1  0  0  0  0
 13 20  1  0  0  0  0
M  END
>  <PUBCHEM_COMPOUND_CID>
135496111

>  <PUBCHEM_CONFORMER_RMSD>
0.4

>  <PUBCHEM_CONFORMER_DIVERSEORDER>
1
4
2
3

>  <PUBCHEM_MMFF94_PARTIAL_CHARGES>
17
1 -0.43
10 0.66
11 -0.15
12 0.16
13 0.28
14 0.37
15 0.15
16 0.15
17 0.15
2 -0.57
3 -0.49
4 -0.63
5 -0.62
6 0.09
7 0.49
8 0.54
9 -0.15

>  <PUBCHEM_EFFECTIVE_ROTOR_COUNT>
1

>  <PUBCHEM_PHARMACOPHORE_FEATURES>
5
1 2 acceptor
1 3 donor
1 5 acceptor
6 3 4 6 7 8 10 rings
6 5 6 7 9 11 12 rings

>  <PUBCHEM_HEAVY_ATOM_COUNT>
13

>  <PUBCHEM_ATOM_DEF_STEREO_COUNT>
0

>  <PUBCHEM_ATOM_UDEF_STEREO_COUNT>
0

>  <PUBCHEM_BOND_DEF_STEREO_COUNT>
0

>  <PUBCHEM_BOND_UDEF_STEREO_COUNT>
0

>  <PUBCHEM_ISOTOPIC_ATOM_COUNT>
0

>  <PUBCHEM_COMPONENT_COUNT>
1

>  <PUBCHEM_CACTVS_TAUTO_COUNT>
-1

>  <PUBCHEM_CONFORMER_ID>
081381AF00000001

>  <PUBCHEM_MMFF94_ENERGY>
35.0701

>  <PUBCHEM_FEATURE_SELFOVERLAP>
25.408

>  <PUBCHEM_SHAPE_FINGERPRINT>
10967382 1 18410855447253828901
13380535 76 18412823594859090510
13897977 150 18265612083239455789
14325111 11 18410575063288729056
14614273 12 18188765046679062469
14648413 74 17832989343286677017
15669948 3 18266174122907457294
15775835 57 18343586222255232945
16945 1 18338517555054980646
17990270 104 17834673790795088307
18186145 218 18271814475592217668
193761 8 17690280408823138340
20510252 161 18271811254087177713
20645476 183 17822872973160082462
20871998 184 18055923331368580894
21040471 1 18410855473108191106
21501502 16 18195241118700557449
21524375 3 18412821369944698818
2334 1 18410573955097236065
23402539 116 18269825561825296663
23402655 69 18268976606675696197
23463225 33 18262232197433107482
23552423 10 18122061996964006871
23559900 14 18272093834031084492
241688 4 16394086912783813203
2748010 2 18337397036773841063
43471831 8 18335136470942947995
528886 8 18410849958570454897
53812653 166 18343298171530735016
54173680 148 18120937462688381618
6333449 129 18339640152248153632
7364860 26 17981324495386446262

>  <PUBCHEM_SHAPE_MULTIPOLES>
240.85
4.7
2.27
0.58
2.35
1.01
0
-2.36
0
-0.32
0
-0.03
-0.01
0

>  <PUBCHEM_SHAPE_SELFOVERLAP>
522.967

>  <PUBCHEM_SHAPE_VOLUME>
130

>  <PUBCHEM_COORDINATE_TYPE>
2
5
10

$$$$
