135754398
 OpenBabel01182520543D

 30 32  0  0  0  0  0  0  0  0999 V2000
    3.1946   -2.7109    0.4533 O   0  0  0  0  0  0  0  0  0  0  0  0
    1.1620   -1.6695    0.0985 N   0  0  0  0  0  0  0  0  0  0  0  0
    0.9981    0.6582   -0.2876 N   0  0  0  0  0  0  0  0  0  0  0  0
    2.9216    1.9769   -0.3184 N   0  0  0  0  0  0  0  0  0  0  0  0
    3.1887   -0.3811    0.0832 C   0  0  0  0  0  0  0  0  0  0  0  0
    0.4522   -0.5093   -0.1529 C   0  0  0  0  0  0  0  0  0  0  0  0
    2.3977    0.7380   -0.1694 C   0  0  0  0  0  0  0  0  0  0  0  0
    2.5412   -1.6985    0.2319 C   0  0  0  0  0  0  0  0  0  0  0  0
    4.5691   -0.2306    0.1884 C   0  0  0  0  0  0  0  0  0  0  0  0
   -1.0018   -0.7119   -0.2575 C   0  0  0  0  0  0  0  0  0  0  0  0
   -3.2747    0.2377    0.0686 C   0  0  0  0  0  0  0  0  0  0  0  0
   -1.8026    0.2919    0.1062 C   0  0  0  0  0  0  0  0  0  0  0  0
    5.1226    1.0345    0.0379 C   0  0  0  0  0  0  0  0  0  0  0  0
   -3.9176   -0.7072   -0.7310 C   0  0  0  0  0  0  0  0  0  0  0  0
   -4.0252    1.1313    0.8327 C   0  0  0  0  0  0  0  0  0  0  0  0
    4.2656    2.0938   -0.2115 C   0  0  0  0  0  0  0  0  0  0  0  0
   -5.3112   -0.7585   -0.7667 C   0  0  0  0  0  0  0  0  0  0  0  0
   -5.4186    1.0801    0.7971 C   0  0  0  0  0  0  0  0  0  0  0  0
   -6.0617    0.1351   -0.0026 C   0  0  0  0  0  0  0  0  0  0  0  0
    0.6647   -2.5509    0.1938 H   0  0  0  0  0  0  0  0  0  0  0  0
    5.2188   -1.0782    0.3844 H   0  0  0  0  0  0  0  0  0  0  0  0
   -1.3511   -1.6776   -0.6013 H   0  0  0  0  0  0  0  0  0  0  0  0
   -1.3899    1.2264    0.4798 H   0  0  0  0  0  0  0  0  0  0  0  0
    6.1931    1.1878    0.1134 H   0  0  0  0  0  0  0  0  0  0  0  0
   -3.3753   -1.4092   -1.3575 H   0  0  0  0  0  0  0  0  0  0  0  0
   -3.5413    1.8737    1.4627 H   0  0  0  0  0  0  0  0  0  0  0  0
    4.6507    3.1007   -0.3363 H   0  0  0  0  0  0  0  0  0  0  0  0
   -5.8125   -1.4910   -1.3927 H   0  0  0  0  0  0  0  0  0  0  0  0
   -6.0033    1.7757    1.3920 H   0  0  0  0  0  0  0  0  0  0  0  0
   -7.1467    0.0960   -0.0311 H   0  0  0  0  0  0  0  0  0  0  0  0
  1  8  2  0  0  0  0
  2  6  1  0  0  0  0
  2  8  1  0  0  0  0
  2 20  1  0  0  0  0
  3  6  2  0  0  0  0
  3  7  1  0  0  0  0
  4  7  1  0  0  0  0
  4 16  2  0  0  0  0
  5  7  2  0  0  0  0
  5  8  1  0  0  0  0
  5  9  1  0  0  0  0
  6 10  1  0  0  0  0
  9 13  2  0  0  0  0
  9 21  1  0  0  0  0
 10 12  2  0  0  0  0
 10 22  1  0  0  0  0
 11 12  1  0  0  0  0
 11 14  2  0  0  0  0
 11 15  1  0  0  0  0
 12 23  1  0  0  0  0
 13 16  1  0  0  0  0
 13 24  1  0  0  0  0
 14 17  1  0  0  0  0
 14 25  1  0  0  0  0
 15 18  2  0  0  0  0
 15 26  1  0  0  0  0
 16 27  1  0  0  0  0
 17 19  2  0  0  0  0
 17 28  1  0  0  0  0
 18 19  1  0  0  0  0
 18 29  1  0  0  0  0
 19 30  1  0  0  0  0
M  END
>  <PUBCHEM_COMPOUND_CID>
135754398

>  <PUBCHEM_CONFORMER_RMSD>
0.6

>  <PUBCHEM_CONFORMER_DIVERSEORDER>
1
3
4
2

>  <PUBCHEM_MMFF94_PARTIAL_CHARGES>
30
1 -0.57
10 -0.14
11 0.03
12 -0.18
13 -0.15
14 -0.15
15 -0.15
16 0.16
17 -0.15
18 -0.15
19 -0.15
2 -0.49
20 0.37
21 0.15
22 0.15
23 0.15
24 0.15
25 0.15
26 0.15
27 0.15
28 0.15
29 0.15
3 -0.63
30 0.15
4 -0.62
5 0.09
6 0.5
7 0.49
8 0.54
9 -0.15

>  <PUBCHEM_EFFECTIVE_ROTOR_COUNT>
2

>  <PUBCHEM_PHARMACOPHORE_FEATURES>
6
1 1 acceptor
1 2 donor
1 4 acceptor
6 11 14 15 17 18 19 rings
6 2 3 5 6 7 8 rings
6 4 5 7 9 13 16 rings

>  <PUBCHEM_HEAVY_ATOM_COUNT>
19

>  <PUBCHEM_ATOM_DEF_STEREO_COUNT>
0

>  <PUBCHEM_ATOM_UDEF_STEREO_COUNT>
0

>  <PUBCHEM_BOND_DEF_STEREO_COUNT>
1

>  <PUBCHEM_BOND_UDEF_STEREO_COUNT>
0

>  <PUBCHEM_ISOTOPIC_ATOM_COUNT>
0

>  <PUBCHEM_COMPONENT_COUNT>
1

>  <PUBCHEM_CACTVS_TAUTO_COUNT>
-1

>  <PUBCHEM_CONFORMER_ID>
0817729E00000001

>  <PUBCHEM_MMFF94_ENERGY>
55.6181

>  <PUBCHEM_FEATURE_SELFOVERLAP>
30.483

>  <PUBCHEM_SHAPE_FINGERPRINT>
10354089 29 18410296908337419632
10411042 1 17976538309288454722
10595046 47 18342174488375337637
10688039 33 17530961363090529732
10912923 1 18201718436400212547
10937287 8 17249226051406533836
11089746 13 18131067164673018536
11471102 20 18407758145074548702
12107183 9 17692818090645502601
12236239 1 18131349708916984511
12644460 14 18259981553108153906
12730499 353 18260556631812037034
13167372 99 18269559351743072353
13167823 11 18342737403927186503
13533116 47 18187363177716826875
13631057 29 18197211671546072759
13785724 45 17621606012112214038
13955234 65 18335698317633015610
14251764 18 18409725180256880888
14341114 176 18410018706457987443
14528608 73 18342739645462037805
15196674 1 18411418367569967913
15250474 111 18200578268486224471
15475509 35 16298657279864168002
17834072 33 18341893004587211359
17844677 252 18338521816137363453
18681886 176 17774999115963365962
200 152 18343299271653960867
20157964 124 18408321073500424967
20511986 3 18271792519867035105
20645477 70 18410573942381665590
21033648 29 17313368055124540437
21065198 48 18343021060831276737
21267235 1 18411989035226218334
23402539 116 17846776321514295701
23402655 69 18343581866963235630
23532345 1 18334861631948620266
23557571 272 14548744975862087907
23559900 14 18334857250797174282
29717793 49 17917994949224571949
300161 21 18342734109692187837
335352 9 18409168818936422062
33824 294 18259982661125501874
34797466 226 16271652298822458057
3545911 37 18334859437167629791
4073 2 18113624520921364379
4214541 1 18341331111522824877
42630746 31 18410573981378931254
4325135 7 18343863338367451239
4340502 62 17749108902383785619
474 4 18262238927446582004
5104073 3 18334575771615375627
542803 24 18060701693344583221
67856867 119 18342168977378500217
77779 3 18412263913665788775
8272917 22 18412266108178085254
9971528 1 17967536748523017517
9999458 23 18187085079312021254

>  <PUBCHEM_SHAPE_MULTIPOLES>
370.2
14.16
1.94
0.77
11.03
0.38
0.01
-3.47
0.35
-2.47
0.16
0.52
-0.02
-1.28

>  <PUBCHEM_SHAPE_SELFOVERLAP>
815.346

>  <PUBCHEM_SHAPE_VOLUME>
196.5

>  <PUBCHEM_COORDINATE_TYPE>
2
5
10

$$$$
