135883858
 OpenBabel01182520543D

 16 17  0  0  0  0  0  0  0  0999 V2000
    3.5586    1.2057   -0.0003 Cl  0  0  0  0  0  0  0  0  0  0  0  0
    0.5023   -2.6977    0.0002 O   0  0  0  0  0  0  0  0  0  0  0  0
    1.8573   -0.8258   -0.0002 N   0  0  0  0  0  0  0  0  0  0  0  0
    0.9718    1.3674    0.0003 N   0  0  0  0  0  0  0  0  0  0  0  0
   -1.3381    1.6927    0.0002 N   0  0  0  0  0  0  0  0  0  0  0  0
   -0.5290   -0.5747    0.0002 C   0  0  0  0  0  0  0  0  0  0  0  0
   -0.3178    0.8037    0.0002 C   0  0  0  0  0  0  0  0  0  0  0  0
    0.6369   -1.4802    0.0001 C   0  0  0  0  0  0  0  0  0  0  0  0
   -1.8324   -1.0645   -0.0001 C   0  0  0  0  0  0  0  0  0  0  0  0
    1.9750    0.5494   -0.0001 C   0  0  0  0  0  0  0  0  0  0  0  0
   -2.8907   -0.1646   -0.0003 C   0  0  0  0  0  0  0  0  0  0  0  0
   -2.5939    1.1886   -0.0002 C   0  0  0  0  0  0  0  0  0  0  0  0
   -2.0377   -2.1307   -0.0003 H   0  0  0  0  0  0  0  0  0  0  0  0
    2.7054   -1.3845   -0.0004 H   0  0  0  0  0  0  0  0  0  0  0  0
   -3.9179   -0.5112   -0.0006 H   0  0  0  0  0  0  0  0  0  0  0  0
   -3.3866    1.9297   -0.0002 H   0  0  0  0  0  0  0  0  0  0  0  0
  1 10  1  0  0  0  0
  2  8  2  0  0  0  0
  3  8  1  0  0  0  0
  3 10  1  0  0  0  0
  3 14  1  0  0  0  0
  4  7  1  0  0  0  0
  4 10  2  0  0  0  0
  5  7  1  0  0  0  0
  5 12  2  0  0  0  0
  6  7  2  0  0  0  0
  6  8  1  0  0  0  0
  6  9  1  0  0  0  0
  9 11  2  0  0  0  0
  9 13  1  0  0  0  0
 11 12  1  0  0  0  0
 11 15  1  0  0  0  0
 12 16  1  0  0  0  0
M  END
>  <PUBCHEM_COMPOUND_CID>
135883858

>  <PUBCHEM_CONFORMER_RMSD>
0.4

>  <PUBCHEM_CONFORMER_DIVERSEORDER>
1

>  <PUBCHEM_MMFF94_PARTIAL_CHARGES>
16
1 -0.21
10 0.72
11 -0.15
12 0.16
13 0.15
14 0.37
15 0.15
16 0.15
2 -0.57
3 -0.49
4 -0.63
5 -0.62
6 0.09
7 0.49
8 0.54
9 -0.15

>  <PUBCHEM_EFFECTIVE_ROTOR_COUNT>
0

>  <PUBCHEM_PHARMACOPHORE_FEATURES>
5
1 2 acceptor
1 3 donor
1 5 acceptor
6 3 4 6 7 8 10 rings
6 5 6 7 9 11 12 rings

>  <PUBCHEM_HEAVY_ATOM_COUNT>
12

>  <PUBCHEM_ATOM_DEF_STEREO_COUNT>
0

>  <PUBCHEM_ATOM_UDEF_STEREO_COUNT>
0

>  <PUBCHEM_BOND_DEF_STEREO_COUNT>
0

>  <PUBCHEM_BOND_UDEF_STEREO_COUNT>
0

>  <PUBCHEM_ISOTOPIC_ATOM_COUNT>
0

>  <PUBCHEM_COMPONENT_COUNT>
1

>  <PUBCHEM_CACTVS_TAUTO_COUNT>
-1

>  <PUBCHEM_CONFORMER_ID>
08196C5200000001

>  <PUBCHEM_MMFF94_ENERGY>
27.1475

>  <PUBCHEM_FEATURE_SELFOVERLAP>
25.408

>  <PUBCHEM_SHAPE_FINGERPRINT>
12524768 44 18191589644742537071
12897270 3 18410855447433248533
13380535 76 18408601461391655747
14325111 11 18410856568388278528
14614273 12 18260821579738703533
15775835 57 18343306976255792121
16945 1 18194402178121837569
17990270 104 18050847723812427363
193761 8 17978509728513200004
19973954 147 18194966232045416769
20645476 183 17750530648734137926
20871998 184 17911809277369722014
21040471 1 18338516468633957090
21501502 16 18339357444831950977
23235685 24 18409442622104477132
2334 1 18410573993978756066
23402539 116 18198613535279086686
23402655 69 18341035334537400589
23463225 33 18334288730772238946
23552423 10 18264772056281832447
241688 4 16898209738512760834
2748010 2 18410016515692428686
43471831 8 18335697256480713506
5084963 1 18131073791459162849
528886 8 18411131476349164945
53812653 166 18343580771968264256
54173680 148 17976822317752057314
7364860 26 18198060274940891214

>  <PUBCHEM_SHAPE_MULTIPOLES>
228.01
4.37
2.11
0.59
1.66
0.97
0
-1.81
0
0.07
0
0
-0.01
0

>  <PUBCHEM_SHAPE_SELFOVERLAP>
488.961

>  <PUBCHEM_SHAPE_VOLUME>
126.7

>  <PUBCHEM_COORDINATE_TYPE>
2
5
10

$$$$
