136089013
 OpenBabel01182520543D

 24 25  0  0  0  0  0  0  0  0999 V2000
    1.1357    2.8245    0.0023 O   0  0  0  0  0  0  0  0  0  0  0  0
   -2.7561    0.2822   -0.0055 N   0  0  0  0  0  0  0  0  0  0  0  0
   -0.7754    1.5238   -0.0025 N   0  0  0  0  0  0  0  0  0  0  0  0
   -0.6914   -0.8288   -0.0023 N   0  0  0  0  0  0  0  0  0  0  0  0
    1.3658   -1.9245   -0.0004 N   0  0  0  0  0  0  0  0  0  0  0  0
    1.3820    0.4803    0.0006 C   0  0  0  0  0  0  0  0  0  0  0  0
   -1.3863    0.2744   -0.0034 C   0  0  0  0  0  0  0  0  0  0  0  0
    0.7115   -0.7396   -0.0005 C   0  0  0  0  0  0  0  0  0  0  0  0
   -3.5272   -0.9225   -0.0068 C   0  0  0  0  0  0  0  0  0  0  0  0
    0.5955    1.7252    0.0002 C   0  0  0  0  0  0  0  0  0  0  0  0
    2.7746    0.4947    0.0020 C   0  0  0  0  0  0  0  0  0  0  0  0
   -5.0079   -0.5949    0.0132 C   0  0  0  0  0  0  0  0  0  0  0  0
    3.4610   -0.7128    0.0022 C   0  0  0  0  0  0  0  0  0  0  0  0
    2.7184   -1.8821    0.0010 C   0  0  0  0  0  0  0  0  0  0  0  0
   -3.3026   -1.5157   -0.9005 H   0  0  0  0  0  0  0  0  0  0  0  0
   -3.2836   -1.5308    0.8716 H   0  0  0  0  0  0  0  0  0  0  0  0
   -3.2466    1.1720   -0.0081 H   0  0  0  0  0  0  0  0  0  0  0  0
   -1.3727    2.3455   -0.0032 H   0  0  0  0  0  0  0  0  0  0  0  0
    3.3322    1.4264    0.0029 H   0  0  0  0  0  0  0  0  0  0  0  0
   -5.2717   -0.0178    0.9059 H   0  0  0  0  0  0  0  0  0  0  0  0
   -5.2925   -0.0036   -0.8637 H   0  0  0  0  0  0  0  0  0  0  0  0
   -5.6024   -1.5138    0.0127 H   0  0  0  0  0  0  0  0  0  0  0  0
    4.5447   -0.7390    0.0032 H   0  0  0  0  0  0  0  0  0  0  0  0
    3.2087   -2.8502    0.0011 H   0  0  0  0  0  0  0  0  0  0  0  0
  1 10  2  0  0  0  0
  2  7  1  0  0  0  0
  2  9  1  0  0  0  0
  2 17  1  0  0  0  0
  3  7  1  0  0  0  0
  3 10  1  0  0  0  0
  3 18  1  0  0  0  0
  4  7  2  0  0  0  0
  4  8  1  0  0  0  0
  5  8  1  0  0  0  0
  5 14  2  0  0  0  0
  6  8  2  0  0  0  0
  6 10  1  0  0  0  0
  6 11  1  0  0  0  0
  9 12  1  0  0  0  0
  9 15  1  0  0  0  0
  9 16  1  0  0  0  0
 11 13  2  0  0  0  0
 11 19  1  0  0  0  0
 12 20  1  0  0  0  0
 12 21  1  0  0  0  0
 12 22  1  0  0  0  0
 13 14  1  0  0  0  0
 13 23  1  0  0  0  0
 14 24  1  0  0  0  0
M  END
>  <PUBCHEM_COMPOUND_CID>
136089013

>  <PUBCHEM_CONFORMER_RMSD>
0.6

>  <PUBCHEM_CONFORMER_DIVERSEORDER>
1
3
4
2
5

>  <PUBCHEM_MMFF94_PARTIAL_CHARGES>
18
1 -0.57
10 0.54
11 -0.15
13 -0.15
14 0.16
17 0.4
18 0.37
19 0.15
2 -0.82
23 0.15
24 0.15
3 -0.49
4 -0.63
5 -0.62
6 0.09
7 0.56
8 0.49
9 0.37

>  <PUBCHEM_EFFECTIVE_ROTOR_COUNT>
2

>  <PUBCHEM_PHARMACOPHORE_FEATURES>
6
1 1 acceptor
1 2 donor
1 3 donor
1 5 acceptor
6 3 4 6 7 8 10 rings
6 5 6 8 11 13 14 rings

>  <PUBCHEM_HEAVY_ATOM_COUNT>
14

>  <PUBCHEM_ATOM_DEF_STEREO_COUNT>
0

>  <PUBCHEM_ATOM_UDEF_STEREO_COUNT>
0

>  <PUBCHEM_BOND_DEF_STEREO_COUNT>
0

>  <PUBCHEM_BOND_UDEF_STEREO_COUNT>
0

>  <PUBCHEM_ISOTOPIC_ATOM_COUNT>
0

>  <PUBCHEM_COMPONENT_COUNT>
1

>  <PUBCHEM_CACTVS_TAUTO_COUNT>
-1

>  <PUBCHEM_CONFORMER_ID>
081C8DB500000001

>  <PUBCHEM_MMFF94_ENERGY>
29.6904

>  <PUBCHEM_FEATURE_SELFOVERLAP>
30.525

>  <PUBCHEM_SHAPE_FINGERPRINT>
10219947 1 18413673512735876374
10967382 1 18338516447180213124
11471102 20 18410007771349926125
11543360 7 15719688626867712263
11806522 49 18410292536255956039
12032990 46 18339364067476615446
13380536 305 18266463289880685164
14251717 144 18410574015474951455
14252887 29 18131077008490284062
15442244 35 18340773633220757721
15477762 27 18411418431772905351
15501101 241 18333450967046466725
16945 1 18410855494699026668
193761 8 17762055841100992934
20201158 50 18334014999347587715
20606313 2 18409448106767060711
20645477 70 18336540629523399599
20871998 184 17986665961623469814
20871998 22 18199474276763784126
21267235 1 18411709759204444766
21296965 67 18340204098517884593
21501925 9 18411131429020200131
221490 88 18191593153868474795
2334 1 17689999354842698598
23402539 116 18341602673145603198
23402655 69 18411133628533949303
23463225 33 18411139095594871630
2748010 2 18267857285956825332
3071541 37 18190467245060383380
54173680 148 17690278205932306842
7364860 26 18341612688956570344
8809292 202 18114749334196316627

>  <PUBCHEM_SHAPE_MULTIPOLES>
262.32
6.72
2.17
0.58
8.32
0.94
0
-2.98
-0.02
-1.39
0
-0.01
-0.02
0

>  <PUBCHEM_SHAPE_SELFOVERLAP>
559.986

>  <PUBCHEM_SHAPE_VOLUME>
144

>  <PUBCHEM_COORDINATE_TYPE>
2
5
10

$$$$
