136127010
 OpenBabel01182520543D

 19 20  0  0  0  0  0  0  0  0999 V2000
    3.0096   -1.6461    0.0009 F   0  0  0  0  0  0  0  0  0  0  0  0
    3.3196    0.2157   -1.0894 F   0  0  0  0  0  0  0  0  0  0  0  0
    3.3176    0.2159    1.0913 F   0  0  0  0  0  0  0  0  0  0  0  0
   -0.7922    2.8345   -0.0008 O   0  0  0  0  0  0  0  0  0  0  0  0
    0.8868    1.2465   -0.0006 N   0  0  0  0  0  0  0  0  0  0  0  0
    0.4187   -1.0714   -0.0014 N   0  0  0  0  0  0  0  0  0  0  0  0
   -1.7908   -1.8183   -0.0010 N   0  0  0  0  0  0  0  0  0  0  0  0
   -1.4139    0.5588   -0.0001 C   0  0  0  0  0  0  0  0  0  0  0  0
    1.2574   -0.0833   -0.0009 C   0  0  0  0  0  0  0  0  0  0  0  0
   -0.9522   -0.7562   -0.0010 C   0  0  0  0  0  0  0  0  0  0  0  0
   -0.4347    1.6626   -0.0002 C   0  0  0  0  0  0  0  0  0  0  0  0
   -2.7853    0.8001    0.0012 C   0  0  0  0  0  0  0  0  0  0  0  0
    2.7371   -0.3249    0.0004 C   0  0  0  0  0  0  0  0  0  0  0  0
   -3.6595   -0.2793    0.0014 C   0  0  0  0  0  0  0  0  0  0  0  0
   -3.1182   -1.5547    0.0002 C   0  0  0  0  0  0  0  0  0  0  0  0
    1.6097    1.9608   -0.0006 H   0  0  0  0  0  0  0  0  0  0  0  0
   -3.1836    1.8102    0.0020 H   0  0  0  0  0  0  0  0  0  0  0  0
   -4.7330   -0.1282    0.0024 H   0  0  0  0  0  0  0  0  0  0  0  0
   -3.7605   -2.4293    0.0003 H   0  0  0  0  0  0  0  0  0  0  0  0
  1 13  1  0  0  0  0
  2 13  1  0  0  0  0
  3 13  1  0  0  0  0
  4 11  2  0  0  0  0
  5  9  1  0  0  0  0
  5 11  1  0  0  0  0
  5 16  1  0  0  0  0
  6  9  2  0  0  0  0
  6 10  1  0  0  0  0
  7 10  1  0  0  0  0
  7 15  2  0  0  0  0
  8 10  2  0  0  0  0
  8 11  1  0  0  0  0
  8 12  1  0  0  0  0
  9 13  1  0  0  0  0
 12 14  2  0  0  0  0
 12 17  1  0  0  0  0
 14 15  1  0  0  0  0
 14 18  1  0  0  0  0
 15 19  1  0  0  0  0
M  END
>  <PUBCHEM_COMPOUND_CID>
136127010

>  <PUBCHEM_CONFORMER_RMSD>
0.4

>  <PUBCHEM_CONFORMER_DIVERSEORDER>
1

>  <PUBCHEM_MMFF94_PARTIAL_CHARGES>
19
1 -0.34
10 0.49
11 0.54
12 -0.15
13 1.08
14 -0.15
15 0.16
16 0.37
17 0.15
18 0.15
19 0.15
2 -0.34
3 -0.34
4 -0.57
5 -0.49
6 -0.63
7 -0.62
8 0.09
9 0.45

>  <PUBCHEM_EFFECTIVE_ROTOR_COUNT>
1

>  <PUBCHEM_PHARMACOPHORE_FEATURES>
5
1 4 acceptor
1 5 donor
1 7 acceptor
6 5 6 8 9 10 11 rings
6 7 8 10 12 14 15 rings

>  <PUBCHEM_HEAVY_ATOM_COUNT>
15

>  <PUBCHEM_ATOM_DEF_STEREO_COUNT>
0

>  <PUBCHEM_ATOM_UDEF_STEREO_COUNT>
0

>  <PUBCHEM_BOND_DEF_STEREO_COUNT>
0

>  <PUBCHEM_BOND_UDEF_STEREO_COUNT>
0

>  <PUBCHEM_ISOTOPIC_ATOM_COUNT>
0

>  <PUBCHEM_COMPONENT_COUNT>
1

>  <PUBCHEM_CACTVS_TAUTO_COUNT>
-1

>  <PUBCHEM_CONFORMER_ID>
081D222200000001

>  <PUBCHEM_MMFF94_ENERGY>
32.46

>  <PUBCHEM_FEATURE_SELFOVERLAP>
25.408

>  <PUBCHEM_SHAPE_FINGERPRINT>
10130415 120 18333730255889929435
10465860 71 18268169676007880268
10967382 1 18338797952042372775
11132069 177 18412258424249107289
11543360 7 15575000636362760643
12032990 46 18410860979488470627
14144814 61 18410855468850238195
15375462 189 18113899364352233115
15536298 74 18199752616409158672
16945 1 18410855430169080645
17804303 29 18198062478485967342
18175812 5 17847062194273526486
193761 8 17617941331666860615
20281407 28 18413110567071978859
20510252 161 18271521983707960040
20871998 184 18201718431683096319
21267235 1 18409740568291544827
21501925 9 18268138928373865995
2334 1 18122343738038831241
23402539 116 18272077284841299423
23463225 33 18409450288657919903
23552423 10 17903639923397561645
23559900 14 18341045225677861874
2748010 2 18267578190360399965
3312278 4 18334862731180874475
7364860 26 17981608478814059273
81228 2 18337963281020244345

>  <PUBCHEM_SHAPE_MULTIPOLES>
266.06
5.68
2.04
0.69
1.64
0.84
0
-1.86
0
-0.7
0
0.35
0.02
0

>  <PUBCHEM_SHAPE_SELFOVERLAP>
584.418

>  <PUBCHEM_SHAPE_VOLUME>
143.6

>  <PUBCHEM_COORDINATE_TYPE>
2
5
10

$$$$
