136163729
 OpenBabel01182520543D

 28 29  0  0  0  0  0  0  0  0999 V2000
   -0.7884    2.8368   -0.0008 O   0  0  0  0  0  0  0  0  0  0  0  0
    0.8875    1.2456   -0.0006 N   0  0  0  0  0  0  0  0  0  0  0  0
    0.4150   -1.0714   -0.0014 N   0  0  0  0  0  0  0  0  0  0  0  0
   -1.7959   -1.8141   -0.0010 N   0  0  0  0  0  0  0  0  0  0  0  0
    2.7348   -0.3294    0.0005 C   0  0  0  0  0  0  0  0  0  0  0  0
    1.2556   -0.0850   -0.0009 C   0  0  0  0  0  0  0  0  0  0  0  0
    2.9695   -1.8432    0.0009 C   0  0  0  0  0  0  0  0  0  0  0  0
    3.3461    0.3007    1.2566 C   0  0  0  0  0  0  0  0  0  0  0  0
    3.3487    0.3004   -1.2546 C   0  0  0  0  0  0  0  0  0  0  0  0
   -1.4145    0.5623   -0.0001 C   0  0  0  0  0  0  0  0  0  0  0  0
   -0.9553   -0.7536   -0.0010 C   0  0  0  0  0  0  0  0  0  0  0  0
   -0.4332    1.6642   -0.0002 C   0  0  0  0  0  0  0  0  0  0  0  0
   -2.7855    0.8062    0.0011 C   0  0  0  0  0  0  0  0  0  0  0  0
   -3.6617   -0.2716    0.0014 C   0  0  0  0  0  0  0  0  0  0  0  0
   -3.1228   -1.5480    0.0002 C   0  0  0  0  0  0  0  0  0  0  0  0
    4.0425   -2.0686    0.0019 H   0  0  0  0  0  0  0  0  0  0  0  0
    2.5393   -2.3242    0.8875 H   0  0  0  0  0  0  0  0  0  0  0  0
    2.5409   -2.3245   -0.8864 H   0  0  0  0  0  0  0  0  0  0  0  0
    4.4088    0.0463    1.3428 H   0  0  0  0  0  0  0  0  0  0  0  0
    2.8433   -0.0569    2.1629 H   0  0  0  0  0  0  0  0  0  0  0  0
    3.2763    1.3938    1.2556 H   0  0  0  0  0  0  0  0  0  0  0  0
    4.4116    0.0462   -1.3385 H   0  0  0  0  0  0  0  0  0  0  0  0
    3.2785    1.3935   -1.2542 H   0  0  0  0  0  0  0  0  0  0  0  0
    2.8478   -0.0577   -2.1618 H   0  0  0  0  0  0  0  0  0  0  0  0
    1.5976    1.9711   -0.0007 H   0  0  0  0  0  0  0  0  0  0  0  0
   -3.1818    1.8170    0.0020 H   0  0  0  0  0  0  0  0  0  0  0  0
   -4.7349   -0.1184    0.0024 H   0  0  0  0  0  0  0  0  0  0  0  0
   -3.7668   -2.4214    0.0002 H   0  0  0  0  0  0  0  0  0  0  0  0
  1 12  2  0  0  0  0
  2  6  1  0  0  0  0
  2 12  1  0  0  0  0
  2 25  1  0  0  0  0
  3  6  2  0  0  0  0
  3 11  1  0  0  0  0
  4 11  1  0  0  0  0
  4 15  2  0  0  0  0
  5  6  1  0  0  0  0
  5  7  1  0  0  0  0
  5  8  1  0  0  0  0
  5  9  1  0  0  0  0
  7 16  1  0  0  0  0
  7 17  1  0  0  0  0
  7 18  1  0  0  0  0
  8 19  1  0  0  0  0
  8 20  1  0  0  0  0
  8 21  1  0  0  0  0
  9 22  1  0  0  0  0
  9 23  1  0  0  0  0
  9 24  1  0  0  0  0
 10 11  2  0  0  0  0
 10 12  1  0  0  0  0
 10 13  1  0  0  0  0
 13 14  2  0  0  0  0
 13 26  1  0  0  0  0
 14 15  1  0  0  0  0
 14 27  1  0  0  0  0
 15 28  1  0  0  0  0
M  END
>  <PUBCHEM_COMPOUND_CID>
136163729

>  <PUBCHEM_CONFORMER_RMSD>
0.4

>  <PUBCHEM_CONFORMER_DIVERSEORDER>
1
2

>  <PUBCHEM_MMFF94_PARTIAL_CHARGES>
16
1 -0.57
10 0.09
11 0.49
12 0.54
13 -0.15
14 -0.15
15 0.16
2 -0.49
25 0.37
26 0.15
27 0.15
28 0.15
3 -0.63
4 -0.62
5 0.06
6 0.45

>  <PUBCHEM_EFFECTIVE_ROTOR_COUNT>
1

>  <PUBCHEM_PHARMACOPHORE_FEATURES>
6
1 1 acceptor
1 2 donor
1 4 acceptor
4 5 7 8 9 hydrophobe
6 2 3 6 10 11 12 rings
6 4 10 11 13 14 15 rings

>  <PUBCHEM_HEAVY_ATOM_COUNT>
15

>  <PUBCHEM_ATOM_DEF_STEREO_COUNT>
0

>  <PUBCHEM_ATOM_UDEF_STEREO_COUNT>
0

>  <PUBCHEM_BOND_DEF_STEREO_COUNT>
0

>  <PUBCHEM_BOND_UDEF_STEREO_COUNT>
0

>  <PUBCHEM_ISOTOPIC_ATOM_COUNT>
0

>  <PUBCHEM_COMPONENT_COUNT>
1

>  <PUBCHEM_CACTVS_TAUTO_COUNT>
-1

>  <PUBCHEM_CONFORMER_ID>
081DB19100000001

>  <PUBCHEM_MMFF94_ENERGY>
43.8554

>  <PUBCHEM_FEATURE_SELFOVERLAP>
30.482

>  <PUBCHEM_SHAPE_FINGERPRINT>
10130415 120 18260826033498171163
10465860 71 18268169676039541748
10608611 8 18342731884530071392
10618630 7 18409448081108039766
10967382 1 18338797939125835367
11132069 177 18411695478606464513
11543360 7 15575279912300372011
12032990 46 18410860975172404323
12382932 28 18412821399814141939
12553582 1 18338520870975968247
12932764 1 17775560940487701750
13296908 3 18344147007476604286
14144814 61 18410855468823857931
15375462 189 18113900468111335907
15536298 74 18200034091396399352
15848700 24 18342167908121450095
16945 1 18410573963687352549
17804303 29 18197780994940453574
18175812 5 17775286075238676478
193761 8 17617941327356082055
20281407 28 18413110567077266602
20281475 54 18410296916974859419
20510252 161 18271521983713228304
20645477 70 17760920041627531183
20871998 184 18201718431635636543
21267235 1 18409459084688021779
21501925 9 18339915043097937459
22802520 49 18058173821417479982
2334 1 18122343746560194057
23402539 116 18271794706005246167
23463225 33 18409450275704517687
23532345 42 18341326798874493456
23552423 10 17975417129032757293
23557571 272 18272092686599310292
23559900 14 18340763746379855646
2748010 2 18267860769080402173
3312278 4 18334864938815170082
34934 24 18339350950583131407
474 4 16807026548375323100
537710 114 18335145310111873381
5902787 121 18189328146655489851
7364860 26 17981891053265480913
81228 2 18337115561802756097
8809292 202 18335144171771771930

>  <PUBCHEM_SHAPE_MULTIPOLES>
287.88
6.16
2.08
0.82
0.68
0.61
0
-1.72
0
-0.65
0
0.76
0.07
0

>  <PUBCHEM_SHAPE_SELFOVERLAP>
618.528

>  <PUBCHEM_SHAPE_VOLUME>
159.9

>  <PUBCHEM_COORDINATE_TYPE>
2
5
10

$$$$
