136163728
 OpenBabel01182520543D

 22 23  0  0  0  0  0  0  0  0999 V2000
    2.5806    0.9778   -1.3130 F   0  0  0  0  0  0  0  0  0  0  0  0
    2.3372   -1.1811   -1.4328 F   0  0  0  0  0  0  0  0  0  0  0  0
    2.6651    0.8106    1.4535 F   0  0  0  0  0  0  0  0  0  0  0  0
    4.1711   -0.4055    0.4426 F   0  0  0  0  0  0  0  0  0  0  0  0
    2.4079   -1.3503    1.3106 F   0  0  0  0  0  0  0  0  0  0  0  0
   -1.5337    2.8396    0.1222 O   0  0  0  0  0  0  0  0  0  0  0  0
    0.1983    1.3560   -0.2517 N   0  0  0  0  0  0  0  0  0  0  0  0
   -0.1554   -0.9792   -0.3672 N   0  0  0  0  0  0  0  0  0  0  0  0
   -2.3018   -1.8516   -0.0995 N   0  0  0  0  0  0  0  0  0  0  0  0
    2.0988   -0.1012   -0.6487 C   0  0  0  0  0  0  0  0  0  0  0  0
    0.6265    0.0534   -0.4122 C   0  0  0  0  0  0  0  0  0  0  0  0
   -2.0409    0.5373    0.0342 C   0  0  0  0  0  0  0  0  0  0  0  0
   -1.5236   -0.7452   -0.1392 C   0  0  0  0  0  0  0  0  0  0  0  0
    2.8448   -0.2572    0.6471 C   0  0  0  0  0  0  0  0  0  0  0  0
   -1.1258    1.6934   -0.0230 C   0  0  0  0  0  0  0  0  0  0  0  0
   -3.4060    0.6977    0.2572 C   0  0  0  0  0  0  0  0  0  0  0  0
   -4.2186   -0.4281    0.3011 C   0  0  0  0  0  0  0  0  0  0  0  0
   -3.6245   -1.6664    0.1187 C   0  0  0  0  0  0  0  0  0  0  0  0
    0.8784    2.1094   -0.3017 H   0  0  0  0  0  0  0  0  0  0  0  0
   -3.8464    1.6802    0.3971 H   0  0  0  0  0  0  0  0  0  0  0  0
   -5.2853   -0.3401    0.4726 H   0  0  0  0  0  0  0  0  0  0  0  0
   -4.2178   -2.5747    0.1443 H   0  0  0  0  0  0  0  0  0  0  0  0
  1 10  1  0  0  0  0
  2 10  1  0  0  0  0
  3 14  1  0  0  0  0
  4 14  1  0  0  0  0
  5 14  1  0  0  0  0
  6 15  2  0  0  0  0
  7 11  1  0  0  0  0
  7 15  1  0  0  0  0
  7 19  1  0  0  0  0
  8 11  2  0  0  0  0
  8 13  1  0  0  0  0
  9 13  1  0  0  0  0
  9 18  2  0  0  0  0
 10 11  1  0  0  0  0
 10 14  1  0  0  0  0
 12 13  2  0  0  0  0
 12 15  1  0  0  0  0
 12 16  1  0  0  0  0
 16 17  2  0  0  0  0
 16 20  1  0  0  0  0
 17 18  1  0  0  0  0
 17 21  1  0  0  0  0
 18 22  1  0  0  0  0
M  END
>  <PUBCHEM_COMPOUND_CID>
136163728

>  <PUBCHEM_CONFORMER_RMSD>
0.6

>  <PUBCHEM_CONFORMER_DIVERSEORDER>
1
3
4
5
2

>  <PUBCHEM_MMFF94_PARTIAL_CHARGES>
22
1 -0.34
10 0.74
11 0.45
12 0.09
13 0.49
14 1.02
15 0.54
16 -0.15
17 -0.15
18 0.16
19 0.37
2 -0.34
20 0.15
21 0.15
22 0.15
3 -0.34
4 -0.34
5 -0.34
6 -0.57
7 -0.49
8 -0.63
9 -0.62

>  <PUBCHEM_EFFECTIVE_ROTOR_COUNT>
2

>  <PUBCHEM_PHARMACOPHORE_FEATURES>
5
1 6 acceptor
1 7 donor
1 9 acceptor
6 7 8 11 12 13 15 rings
6 9 12 13 16 17 18 rings

>  <PUBCHEM_HEAVY_ATOM_COUNT>
18

>  <PUBCHEM_ATOM_DEF_STEREO_COUNT>
0

>  <PUBCHEM_ATOM_UDEF_STEREO_COUNT>
0

>  <PUBCHEM_BOND_DEF_STEREO_COUNT>
0

>  <PUBCHEM_BOND_UDEF_STEREO_COUNT>
0

>  <PUBCHEM_ISOTOPIC_ATOM_COUNT>
0

>  <PUBCHEM_COMPONENT_COUNT>
1

>  <PUBCHEM_CACTVS_TAUTO_COUNT>
-1

>  <PUBCHEM_CONFORMER_ID>
081DB19000000001

>  <PUBCHEM_MMFF94_ENERGY>
31.9606

>  <PUBCHEM_FEATURE_SELFOVERLAP>
25.408

>  <PUBCHEM_SHAPE_FINGERPRINT>
10130415 120 18334297612696067595
10618630 7 18408041827242534279
11132069 177 18342743992396066181
11543360 7 15430608384484219743
11578080 2 17604968446947243213
12251169 10 18411414016409219176
12382932 28 18342739624250899875
12553582 1 18339089293039107887
13140716 1 18339647853583373625
13296908 3 18413395349448008927
13538477 17 18260272949026574030
13581323 91 18411131416351524026
13705890 14 15647340778955348731
14144814 61 18410015455125754195
15219456 202 17775005635417753358
15375462 189 18186806911032847595
16752209 62 18261667070100072085
16945 1 18339084796071192405
17804303 29 18269838614574008078
1813 80 16807013122518843898
18175812 5 17632300090026107967
18186145 218 11819270075057800351
19049666 15 17772194106796867484
200 152 17676485055530709411
20279233 1 17846500335389705743
20388701 513 18412538795451085609
20510252 161 18200595783093227841
20559304 39 18260832596398116412
20645477 70 14634869721718581242
21197605 99 13003175194951363106
21267235 1 18335431179030278619
21501925 9 18340200916416519211
22445834 79 17968652697075174130
22646028 28 18186236234000906347
232386 152 18335985362844386839
2334 1 18123474036298075253
23402539 116 18272078401733223991
23419403 2 16049501528175894141
23463225 33 18334576845520599175
23557571 272 18343301457127760904
23559900 14 18270971132993571982
2748010 2 18269273629006418749
34934 24 18267585895552763253
474 4 17097792411104431364
5902787 121 18263363766786555507
7097593 13 17971745575992157562
7364860 26 17910963766082077593
77492 1 17749114378445644261
81228 2 18338811017734106305
90316 7 18335138657492758137

>  <PUBCHEM_SHAPE_MULTIPOLES>
313.25
6.82
1.94
0.98
0.17
0.8
0.03
-1.94
1.12
-1.19
0.02
0.98
-0.09
-0.13

>  <PUBCHEM_SHAPE_SELFOVERLAP>
690.654

>  <PUBCHEM_SHAPE_VOLUME>
167.7

>  <PUBCHEM_COORDINATE_TYPE>
2
5
10

$$$$
