136156976
 OpenBabel01182520543D

 15 16  0  0  0  0  0  0  0  0999 V2000
   -1.6909   -2.1038    0.0001 O   0  0  0  0  0  0  0  0  0  0  0  0
   -2.2540    0.1289    0.0001 N   0  0  0  0  0  0  0  0  0  0  0  0
    1.5644    1.3180    0.0000 N   0  0  0  0  0  0  0  0  0  0  0  0
   -0.7133    1.8024   -0.0001 N   0  0  0  0  0  0  0  0  0  0  0  0
   -1.9130    1.4433    0.0001 N   0  0  0  0  0  0  0  0  0  0  0  0
    0.0337   -0.5214   -0.0001 C   0  0  0  0  0  0  0  0  0  0  0  0
    0.2999    0.8345   -0.0001 C   0  0  0  0  0  0  0  0  0  0  0  0
    1.0827   -1.4360   -0.0001 C   0  0  0  0  0  0  0  0  0  0  0  0
   -1.3683   -0.9218    0.0000 C   0  0  0  0  0  0  0  0  0  0  0  0
    2.3862   -0.9583    0.0000 C   0  0  0  0  0  0  0  0  0  0  0  0
    2.5724    0.4142    0.0001 C   0  0  0  0  0  0  0  0  0  0  0  0
    0.9023   -2.5065   -0.0001 H   0  0  0  0  0  0  0  0  0  0  0  0
    3.2308   -1.6376    0.0001 H   0  0  0  0  0  0  0  0  0  0  0  0
   -3.2542   -0.0439    0.0001 H   0  0  0  0  0  0  0  0  0  0  0  0
    3.5710    0.8388    0.0003 H   0  0  0  0  0  0  0  0  0  0  0  0
  1  9  2  0  0  0  0
  2  5  1  0  0  0  0
  2  9  1  0  0  0  0
  2 14  1  0  0  0  0
  3  7  1  0  0  0  0
  3 11  2  0  0  0  0
  4  5  2  0  0  0  0
  4  7  1  0  0  0  0
  6  7  2  0  0  0  0
  6  8  1  0  0  0  0
  6  9  1  0  0  0  0
  8 10  2  0  0  0  0
  8 12  1  0  0  0  0
 10 11  1  0  0  0  0
 10 13  1  0  0  0  0
 11 15  1  0  0  0  0
M  END
>  <PUBCHEM_COMPOUND_CID>
136156976

>  <PUBCHEM_CONFORMER_RMSD>
0.4

>  <PUBCHEM_CONFORMER_DIVERSEORDER>
1

>  <PUBCHEM_MMFF94_PARTIAL_CHARGES>
15
1 -0.57
10 -0.15
11 0.16
12 0.15
13 0.15
14 0.37
15 0.15
2 -0.37
3 -0.62
4 -0.18
5 -0.06
6 0.09
7 0.49
8 -0.15
9 0.54

>  <PUBCHEM_EFFECTIVE_ROTOR_COUNT>
0

>  <PUBCHEM_PHARMACOPHORE_FEATURES>
5
1 1 acceptor
1 2 donor
1 3 acceptor
6 2 4 5 6 7 9 rings
6 3 6 7 8 10 11 rings

>  <PUBCHEM_HEAVY_ATOM_COUNT>
11

>  <PUBCHEM_ATOM_DEF_STEREO_COUNT>
0

>  <PUBCHEM_ATOM_UDEF_STEREO_COUNT>
0

>  <PUBCHEM_BOND_DEF_STEREO_COUNT>
0

>  <PUBCHEM_BOND_UDEF_STEREO_COUNT>
0

>  <PUBCHEM_ISOTOPIC_ATOM_COUNT>
0

>  <PUBCHEM_COMPONENT_COUNT>
1

>  <PUBCHEM_CACTVS_TAUTO_COUNT>
-1

>  <PUBCHEM_CONFORMER_ID>
081D973000000001

>  <PUBCHEM_MMFF94_ENERGY>
37.1697

>  <PUBCHEM_FEATURE_SELFOVERLAP>
25.409

>  <PUBCHEM_SHAPE_FINGERPRINT>
12524768 44 18340773649846719414
12897270 3 18339079397086246262
16945 1 18410573955250223364
18185500 45 18195527223224894702
19973954 147 18410576205871102270
20871998 184 18201440306644083759
21040471 1 18266741272990766916
23552423 10 18260832639295028830
23559900 14 18199194984801695494
241688 4 18338234997815064049
2748010 2 18267020750649371038
5084963 1 17986383382782109043
528886 8 18411695521466596642
66348 1 18411135865721371270

>  <PUBCHEM_SHAPE_MULTIPOLES>
200.58
3.26
1.96
0.57
0.58
0.13
0
0.09
0
-0.57
0
0.05
0.02
0

>  <PUBCHEM_SHAPE_SELFOVERLAP>
440.684

>  <PUBCHEM_SHAPE_VOLUME>
107.4

>  <PUBCHEM_COORDINATE_TYPE>
2
5
10

$$$$
