136312202
 OpenBabel01182520543D

 21 22  0  0  0  0  0  0  0  0999 V2000
   -0.1789    2.8075   -0.0859 O   0  0  0  0  0  0  0  0  0  0  0  0
    1.4255    1.1627    0.1611 N   0  0  0  0  0  0  0  0  0  0  0  0
    0.8631   -1.1324    0.2507 N   0  0  0  0  0  0  0  0  0  0  0  0
   -1.3667   -1.7973    0.0900 N   0  0  0  0  0  0  0  0  0  0  0  0
    3.6560   -0.9789   -0.8550 N   0  0  0  0  0  0  0  0  0  0  0  0
   -0.8925    0.5602   -0.0114 C   0  0  0  0  0  0  0  0  0  0  0  0
    1.7388   -0.1773    0.2717 C   0  0  0  0  0  0  0  0  0  0  0  0
   -0.4879   -0.7683    0.1062 C   0  0  0  0  0  0  0  0  0  0  0  0
    0.1279    1.6256    0.0153 C   0  0  0  0  0  0  0  0  0  0  0  0
    3.2010   -0.4719    0.4237 C   0  0  0  0  0  0  0  0  0  0  0  0
   -2.2473    0.8507   -0.1508 C   0  0  0  0  0  0  0  0  0  0  0  0
   -3.1622   -0.1943   -0.1691 C   0  0  0  0  0  0  0  0  0  0  0  0
   -2.6766   -1.4862   -0.0467 C   0  0  0  0  0  0  0  0  0  0  0  0
    2.1702    1.8535    0.1834 H   0  0  0  0  0  0  0  0  0  0  0  0
    3.3418   -1.2254    1.2049 H   0  0  0  0  0  0  0  0  0  0  0  0
    3.7624    0.4266    0.6953 H   0  0  0  0  0  0  0  0  0  0  0  0
   -2.6015    1.8727   -0.2450 H   0  0  0  0  0  0  0  0  0  0  0  0
   -4.2241   -0.0046   -0.2760 H   0  0  0  0  0  0  0  0  0  0  0  0
   -3.3523   -2.3353   -0.0555 H   0  0  0  0  0  0  0  0  0  0  0  0
    3.1892   -1.8609   -1.0645 H   0  0  0  0  0  0  0  0  0  0  0  0
    4.6504   -1.1954   -0.7991 H   0  0  0  0  0  0  0  0  0  0  0  0
  1  9  2  0  0  0  0
  2  7  1  0  0  0  0
  2  9  1  0  0  0  0
  2 14  1  0  0  0  0
  3  7  2  0  0  0  0
  3  8  1  0  0  0  0
  4  8  1  0  0  0  0
  4 13  2  0  0  0  0
  5 10  1  0  0  0  0
  5 20  1  0  0  0  0
  5 21  1  0  0  0  0
  6  8  2  0  0  0  0
  6  9  1  0  0  0  0
  6 11  1  0  0  0  0
  7 10  1  0  0  0  0
 10 15  1  0  0  0  0
 10 16  1  0  0  0  0
 11 12  2  0  0  0  0
 11 17  1  0  0  0  0
 12 13  1  0  0  0  0
 12 18  1  0  0  0  0
 13 19  1  0  0  0  0
M  END
>  <PUBCHEM_COMPOUND_CID>
136312202

>  <PUBCHEM_CONFORMER_RMSD>
0.4

>  <PUBCHEM_CONFORMER_DIVERSEORDER>
1
2
4
3

>  <PUBCHEM_MMFF94_PARTIAL_CHARGES>
19
1 -0.57
10 0.33
11 -0.15
12 -0.15
13 0.16
14 0.37
17 0.15
18 0.15
19 0.15
2 -0.49
20 0.36
21 0.36
3 -0.63
4 -0.62
5 -0.99
6 0.09
7 0.45
8 0.49
9 0.54

>  <PUBCHEM_EFFECTIVE_ROTOR_COUNT>
1

>  <PUBCHEM_PHARMACOPHORE_FEATURES>
7
1 1 acceptor
1 2 donor
1 4 acceptor
1 5 cation
1 5 donor
6 2 3 6 7 8 9 rings
6 4 6 8 11 12 13 rings

>  <PUBCHEM_HEAVY_ATOM_COUNT>
13

>  <PUBCHEM_ATOM_DEF_STEREO_COUNT>
0

>  <PUBCHEM_ATOM_UDEF_STEREO_COUNT>
0

>  <PUBCHEM_BOND_DEF_STEREO_COUNT>
0

>  <PUBCHEM_BOND_UDEF_STEREO_COUNT>
0

>  <PUBCHEM_ISOTOPIC_ATOM_COUNT>
0

>  <PUBCHEM_COMPONENT_COUNT>
1

>  <PUBCHEM_CACTVS_TAUTO_COUNT>
-1

>  <PUBCHEM_CONFORMER_ID>
081FF58A00000001

>  <PUBCHEM_MMFF94_ENERGY>
31.69

>  <PUBCHEM_FEATURE_SELFOVERLAP>
35.557

>  <PUBCHEM_SHAPE_FINGERPRINT>
10465860 71 18339099141330429318
11132069 177 18412819166584089760
11206711 2 18262510399391583245
12032990 46 18411141346089383803
14128692 85 18337392737506309413
14911166 2 18408876322514220319
14993402 34 18410288095359914431
16945 1 18337665304699755696
17990270 104 18193833975391823363
193761 8 17760928845555509763
19973954 147 18192991754096379803
20201158 50 18412822477893449359
20588541 1 18341896229796524679
20645477 70 17977654644076172039
20871998 184 18201435848446626166
21501502 16 18194122043491427911
22802520 49 17985554355547467494
2334 1 18265611176737326408
23402539 116 18270949168240858031
23463225 33 18408601461481268034
23552423 10 17973721669112303663
23559900 14 18341046303962819830
241688 4 18409443695883257297
2748010 2 18338226180178776136
528886 8 18338789018826908425
7364860 26 18053663860806634264
81228 2 18337959965505867528

>  <PUBCHEM_SHAPE_MULTIPOLES>
241.74
4.85
2.08
0.66
2.08
1.08
-0.03
-2.06
-0.55
-0.42
-0.04
0.21
-0.07
0.19

>  <PUBCHEM_SHAPE_SELFOVERLAP>
523.162

>  <PUBCHEM_SHAPE_VOLUME>
130.5

>  <PUBCHEM_COORDINATE_TYPE>
2
5
10

$$$$
