136345787
 OpenBabel01182520543D

 19 20  0  0  0  0  0  0  0  0999 V2000
    3.9415    0.5337   -0.0002 Cl  0  0  0  0  0  0  0  0  0  0  0  0
    0.1210   -2.5991   -0.0014 O   0  0  0  0  0  0  0  0  0  0  0  0
    1.8299   -1.0668    0.0003 N   0  0  0  0  0  0  0  0  0  0  0  0
   -0.7230    2.1011   -0.0003 N   0  0  0  0  0  0  0  0  0  0  0  0
    1.4559    1.2685    0.0001 N   0  0  0  0  0  0  0  0  0  0  0  0
   -0.4403   -0.2898    0.0005 C   0  0  0  0  0  0  0  0  0  0  0  0
   -1.8202   -0.4764    0.0004 C   0  0  0  0  0  0  0  0  0  0  0  0
    0.0730    1.0068    0.0002 C   0  0  0  0  0  0  0  0  0  0  0  0
    0.4943   -1.4325    0.0007 C   0  0  0  0  0  0  0  0  0  0  0  0
   -2.6510    0.6368   -0.0002 C   0  0  0  0  0  0  0  0  0  0  0  0
   -2.4730   -1.8193    0.0004 C   0  0  0  0  0  0  0  0  0  0  0  0
   -2.0597    1.8898   -0.0006 C   0  0  0  0  0  0  0  0  0  0  0  0
    2.2515    0.2473    0.0001 C   0  0  0  0  0  0  0  0  0  0  0  0
   -3.7324    0.5497   -0.0004 H   0  0  0  0  0  0  0  0  0  0  0  0
   -2.2039   -2.3831   -0.8987 H   0  0  0  0  0  0  0  0  0  0  0  0
   -2.2026   -2.3838    0.8985 H   0  0  0  0  0  0  0  0  0  0  0  0
   -3.5664   -1.7394    0.0013 H   0  0  0  0  0  0  0  0  0  0  0  0
    2.5320   -1.8006   -0.0002 H   0  0  0  0  0  0  0  0  0  0  0  0
   -2.6670    2.7892   -0.0011 H   0  0  0  0  0  0  0  0  0  0  0  0
  1 13  1  0  0  0  0
  2  9  2  0  0  0  0
  3  9  1  0  0  0  0
  3 13  1  0  0  0  0
  3 18  1  0  0  0  0
  4  8  2  0  0  0  0
  4 12  1  0  0  0  0
  5  8  1  0  0  0  0
  5 13  2  0  0  0  0
  6  7  2  0  0  0  0
  6  8  1  0  0  0  0
  6  9  1  0  0  0  0
  7 10  1  0  0  0  0
  7 11  1  0  0  0  0
 10 12  2  0  0  0  0
 10 14  1  0  0  0  0
 11 15  1  0  0  0  0
 11 16  1  0  0  0  0
 11 17  1  0  0  0  0
 12 19  1  0  0  0  0
M  END
>  <PUBCHEM_COMPOUND_CID>
136345787

>  <PUBCHEM_CONFORMER_RMSD>
0.4

>  <PUBCHEM_CONFORMER_DIVERSEORDER>
1

>  <PUBCHEM_MMFF94_PARTIAL_CHARGES>
16
1 -0.21
10 -0.15
11 0.14
12 0.16
13 0.72
14 0.15
18 0.37
19 0.15
2 -0.57
3 -0.49
4 -0.62
5 -0.63
6 0.09
7 -0.14
8 0.49
9 0.54

>  <PUBCHEM_EFFECTIVE_ROTOR_COUNT>
0

>  <PUBCHEM_PHARMACOPHORE_FEATURES>
5
1 2 acceptor
1 3 donor
3 4 5 8 cation
6 3 5 6 8 9 13 rings
6 4 6 7 8 10 12 rings

>  <PUBCHEM_HEAVY_ATOM_COUNT>
13

>  <PUBCHEM_ATOM_DEF_STEREO_COUNT>
0

>  <PUBCHEM_ATOM_UDEF_STEREO_COUNT>
0

>  <PUBCHEM_BOND_DEF_STEREO_COUNT>
0

>  <PUBCHEM_BOND_UDEF_STEREO_COUNT>
0

>  <PUBCHEM_ISOTOPIC_ATOM_COUNT>
0

>  <PUBCHEM_COMPONENT_COUNT>
1

>  <PUBCHEM_CACTVS_TAUTO_COUNT>
-1

>  <PUBCHEM_CONFORMER_ID>
082078BB00000001

>  <PUBCHEM_MMFF94_ENERGY>
33.1901

>  <PUBCHEM_FEATURE_SELFOVERLAP>
25.407

>  <PUBCHEM_SHAPE_FINGERPRINT>
108231 29 18200313358796798008
10967382 1 18338798901193182949
11132069 177 18411979165612853304
11206711 2 18410009978715313677
12423570 1 17822861866137317061
12524768 44 18120659024326882503
13380535 21 18269005192996355211
13380535 76 18337948978868533351
14325111 11 18410573977031196832
14614273 12 18188483580096977693
15775835 57 18341618083419487984
16945 1 18194683670231016101
193761 8 18194401091511260743
20510252 161 18271809068249445952
20871998 184 18200878477597771559
21501502 16 18266735783827351387
22802520 49 18057625186627122614
2334 1 18410855507393907557
23402539 116 18198894984491469654
23402655 69 18268976606543846885
23463225 33 18261950726951785202
23552423 10 18261678077584176599
23559900 14 18127980711792352390
241688 4 16034362966336800587
2748010 2 18266737059659602077
43471831 8 18335134276557570634
5084963 1 18130510845800676394
528886 8 18411131433367856473
53812653 166 18343298158846247696
54173680 148 18120657091718719634
6333449 129 18412823598948303392
66348 1 18410571812087916443
7364860 26 17982167821089787046

>  <PUBCHEM_SHAPE_MULTIPOLES>
248.59
4.54
2.35
0.59
3.34
0.48
0
-0.61
0
-1.1
0
0
-0.01
0

>  <PUBCHEM_SHAPE_SELFOVERLAP>
533.178

>  <PUBCHEM_SHAPE_VOLUME>
138.6

>  <PUBCHEM_COORDINATE_TYPE>
2
5
10

$$$$
