136449571
 OpenBabel01182520543D

 28 29  0  0  0  0  0  0  0  0999 V2000
   -1.1320   -2.7975   -0.1243 O   0  0  0  0  0  0  0  0  0  0  0  0
    0.5132   -1.2645    0.4083 N   0  0  0  0  0  0  0  0  0  0  0  0
    0.0773    1.0576    0.5063 N   0  0  0  0  0  0  0  0  0  0  0  0
   -2.0640    1.8656    0.0571 N   0  0  0  0  0  0  0  0  0  0  0  0
    3.2144    0.1408   -0.2531 C   0  0  0  0  0  0  0  0  0  0  0  0
    2.3250    0.2472    0.9786 C   0  0  0  0  0  0  0  0  0  0  0  0
    4.6898    0.3994    0.0621 C   0  0  0  0  0  0  0  0  0  0  0  0
    0.8845    0.0493    0.6134 C   0  0  0  0  0  0  0  0  0  0  0  0
   -1.7172   -0.5129   -0.0674 C   0  0  0  0  0  0  0  0  0  0  0  0
    5.5423    0.3571   -1.1967 C   0  0  0  0  0  0  0  0  0  0  0  0
   -1.2577    0.7834    0.1581 C   0  0  0  0  0  0  0  0  0  0  0  0
   -0.7747   -1.6406    0.0627 C   0  0  0  0  0  0  0  0  0  0  0  0
   -3.0520   -0.7134   -0.4099 C   0  0  0  0  0  0  0  0  0  0  0  0
   -3.8927    0.3871   -0.5180 C   0  0  0  0  0  0  0  0  0  0  0  0
   -3.3561    1.6415   -0.2771 C   0  0  0  0  0  0  0  0  0  0  0  0
    3.1091   -0.8533   -0.7055 H   0  0  0  0  0  0  0  0  0  0  0  0
    2.8722    0.8593   -1.0092 H   0  0  0  0  0  0  0  0  0  0  0  0
    2.6167   -0.5103    1.7154 H   0  0  0  0  0  0  0  0  0  0  0  0
    2.4412    1.2312    1.4471 H   0  0  0  0  0  0  0  0  0  0  0  0
    5.0537   -0.3505    0.7737 H   0  0  0  0  0  0  0  0  0  0  0  0
    4.8017    1.3808    0.5375 H   0  0  0  0  0  0  0  0  0  0  0  0
    1.2074   -1.9992    0.5127 H   0  0  0  0  0  0  0  0  0  0  0  0
    5.2228    1.1205   -1.9132 H   0  0  0  0  0  0  0  0  0  0  0  0
    5.4747   -0.6212   -1.6832 H   0  0  0  0  0  0  0  0  0  0  0  0
    6.5924    0.5418   -0.9493 H   0  0  0  0  0  0  0  0  0  0  0  0
   -3.4473   -1.7078   -0.5935 H   0  0  0  0  0  0  0  0  0  0  0  0
   -4.9371    0.2677   -0.7827 H   0  0  0  0  0  0  0  0  0  0  0  0
   -3.9732    2.5313   -0.3490 H   0  0  0  0  0  0  0  0  0  0  0  0
  1 12  2  0  0  0  0
  2  8  1  0  0  0  0
  2 12  1  0  0  0  0
  2 22  1  0  0  0  0
  3  8  2  0  0  0  0
  3 11  1  0  0  0  0
  4 11  1  0  0  0  0
  4 15  2  0  0  0  0
  5  6  1  0  0  0  0
  5  7  1  0  0  0  0
  5 16  1  0  0  0  0
  5 17  1  0  0  0  0
  6  8  1  0  0  0  0
  6 18  1  0  0  0  0
  6 19  1  0  0  0  0
  7 10  1  0  0  0  0
  7 20  1  0  0  0  0
  7 21  1  0  0  0  0
  9 11  2  0  0  0  0
  9 12  1  0  0  0  0
  9 13  1  0  0  0  0
 10 23  1  0  0  0  0
 10 24  1  0  0  0  0
 10 25  1  0  0  0  0
 13 14  2  0  0  0  0
 13 26  1  0  0  0  0
 14 15  1  0  0  0  0
 14 27  1  0  0  0  0
 15 28  1  0  0  0  0
M  END
>  <PUBCHEM_COMPOUND_CID>
136449571

>  <PUBCHEM_CONFORMER_RMSD>
0.6

>  <PUBCHEM_CONFORMER_DIVERSEORDER>
1
9
10
5
4
6
7
8
11
12
2
3

>  <PUBCHEM_MMFF94_PARTIAL_CHARGES>
16
1 -0.57
11 0.49
12 0.54
13 -0.15
14 -0.15
15 0.16
2 -0.49
22 0.37
26 0.15
27 0.15
28 0.15
3 -0.63
4 -0.62
6 0.06
8 0.45
9 0.09

>  <PUBCHEM_EFFECTIVE_ROTOR_COUNT>
3

>  <PUBCHEM_PHARMACOPHORE_FEATURES>
6
1 1 acceptor
1 10 hydrophobe
1 2 donor
1 4 acceptor
6 2 3 8 9 11 12 rings
6 4 9 11 13 14 15 rings

>  <PUBCHEM_HEAVY_ATOM_COUNT>
15

>  <PUBCHEM_ATOM_DEF_STEREO_COUNT>
0

>  <PUBCHEM_ATOM_UDEF_STEREO_COUNT>
0

>  <PUBCHEM_BOND_DEF_STEREO_COUNT>
0

>  <PUBCHEM_BOND_UDEF_STEREO_COUNT>
0

>  <PUBCHEM_ISOTOPIC_ATOM_COUNT>
0

>  <PUBCHEM_COMPONENT_COUNT>
1

>  <PUBCHEM_CACTVS_TAUTO_COUNT>
-1

>  <PUBCHEM_CONFORMER_ID>
08220E2300000001

>  <PUBCHEM_MMFF94_ENERGY>
30.0309

>  <PUBCHEM_FEATURE_SELFOVERLAP>
30.482

>  <PUBCHEM_SHAPE_FINGERPRINT>
10726558 24 18340487768302004831
12119455 92 13984655966927876888
12186901 62 18411703196625817614
12251169 10 8574712399438472594
12390115 104 18128548080639588041
14911166 2 18342452659936791149
14993402 34 18333444348322586829
15669948 3 18336816585092718578
15775835 57 18187643570314026424
16945 1 18339343262955571251
17870717 6 18130522880916160222
1813 80 13686309001938736248
18186145 218 17988635294201991656
200 152 15482675671717881474
20325693 3 18411425020136543588
20645476 183 18113616806690582354
20645477 56 18410292532135120624
20645477 70 16702308949545493812
20871999 31 18413670231607650716
21637258 2 14979661226750641509
22079108 93 16226056625465802760
22854114 59 13190339076261755972
23175994 123 17060341846344180432
23366157 5 17827074004862796482
23379529 103 17125620019500865775
23402539 116 18342168964720588076
23557571 272 18341342200754129454
23559900 14 18272931640300289568
26918003 58 12535626076618850764
2748010 2 18268139869283037491
293599 30 18411137996289264481
3759504 43 17894912948925800483
4175511 318 18114175341538572708
474 4 16950852530638830172
559249 180 18336542712857130666
9709674 26 18057032730343141088

>  <PUBCHEM_SHAPE_MULTIPOLES>
287.88
8.77
1.85
0.86
11.71
0.87
0.05
-2.8
3.2
-1.76
0.03
0.64
-0.07
-0.09

>  <PUBCHEM_SHAPE_SELFOVERLAP>
606.234

>  <PUBCHEM_SHAPE_VOLUME>
161.3

>  <PUBCHEM_COORDINATE_TYPE>
2
5
10

$$$$
