136508362
 OpenBabel01182520543D

 20 21  0  0  0  0  0  0  0  0999 V2000
    3.4638    0.0455   -0.2731 S   0  0  0  0  0  0  0  0  0  0  0  0
   -0.5634    2.8487    0.1272 O   0  0  0  0  0  0  0  0  0  0  0  0
    1.2487    1.4272   -0.0616 N   0  0  0  0  0  0  0  0  0  0  0  0
    0.9929   -0.9242   -0.1807 N   0  0  0  0  0  0  0  0  0  0  0  0
   -1.1375   -1.8721   -0.1076 N   0  0  0  0  0  0  0  0  0  0  0  0
   -0.9760    0.5269    0.0196 C   0  0  0  0  0  0  0  0  0  0  0  0
   -0.3991   -0.7383   -0.0871 C   0  0  0  0  0  0  0  0  0  0  0  0
   -0.1024    1.7174    0.0355 C   0  0  0  0  0  0  0  0  0  0  0  0
   -2.3612    0.6386    0.1087 C   0  0  0  0  0  0  0  0  0  0  0  0
    1.7291    0.1392   -0.1637 C   0  0  0  0  0  0  0  0  0  0  0  0
   -3.1332   -0.5160    0.0890 C   0  0  0  0  0  0  0  0  0  0  0  0
   -2.4808   -1.7333   -0.0196 C   0  0  0  0  0  0  0  0  0  0  0  0
    3.7191   -1.5597    0.5134 C   0  0  0  0  0  0  0  0  0  0  0  0
    1.9121    2.1961   -0.0573 H   0  0  0  0  0  0  0  0  0  0  0  0
   -2.8480    1.6054    0.1930 H   0  0  0  0  0  0  0  0  0  0  0  0
   -4.2140   -0.4657    0.1564 H   0  0  0  0  0  0  0  0  0  0  0  0
   -3.0411   -2.6624   -0.0392 H   0  0  0  0  0  0  0  0  0  0  0  0
    4.7925   -1.7399    0.6176 H   0  0  0  0  0  0  0  0  0  0  0  0
    3.2956   -2.3633   -0.0953 H   0  0  0  0  0  0  0  0  0  0  0  0
    3.2687   -1.5784    1.5098 H   0  0  0  0  0  0  0  0  0  0  0  0
  1 10  1  0  0  0  0
  1 13  1  0  0  0  0
  2  8  2  0  0  0  0
  3  8  1  0  0  0  0
  3 10  1  0  0  0  0
  3 14  1  0  0  0  0
  4  7  1  0  0  0  0
  4 10  2  0  0  0  0
  5  7  1  0  0  0  0
  5 12  2  0  0  0  0
  6  7  2  0  0  0  0
  6  8  1  0  0  0  0
  6  9  1  0  0  0  0
  9 11  2  0  0  0  0
  9 15  1  0  0  0  0
 11 12  1  0  0  0  0
 11 16  1  0  0  0  0
 12 17  1  0  0  0  0
 13 18  1  0  0  0  0
 13 19  1  0  0  0  0
 13 20  1  0  0  0  0
M  END
>  <PUBCHEM_COMPOUND_CID>
136508362

>  <PUBCHEM_CONFORMER_RMSD>
0.4

>  <PUBCHEM_CONFORMER_DIVERSEORDER>
1
5
2
3
4

>  <PUBCHEM_MMFF94_PARTIAL_CHARGES>
17
1 -0.37
10 0.65
11 -0.15
12 0.16
13 0.23
14 0.37
15 0.15
16 0.15
17 0.15
2 -0.57
3 -0.49
4 -0.63
5 -0.62
6 0.09
7 0.49
8 0.54
9 -0.15

>  <PUBCHEM_EFFECTIVE_ROTOR_COUNT>
1

>  <PUBCHEM_PHARMACOPHORE_FEATURES>
6
1 13 hydrophobe
1 2 acceptor
1 3 donor
1 5 acceptor
6 3 4 6 7 8 10 rings
6 5 6 7 9 11 12 rings

>  <PUBCHEM_HEAVY_ATOM_COUNT>
13

>  <PUBCHEM_ATOM_DEF_STEREO_COUNT>
0

>  <PUBCHEM_ATOM_UDEF_STEREO_COUNT>
0

>  <PUBCHEM_BOND_DEF_STEREO_COUNT>
0

>  <PUBCHEM_BOND_UDEF_STEREO_COUNT>
0

>  <PUBCHEM_ISOTOPIC_ATOM_COUNT>
0

>  <PUBCHEM_COMPONENT_COUNT>
1

>  <PUBCHEM_CACTVS_TAUTO_COUNT>
-1

>  <PUBCHEM_CONFORMER_ID>
0822F3CA00000001

>  <PUBCHEM_MMFF94_ENERGY>
29.637

>  <PUBCHEM_FEATURE_SELFOVERLAP>
30.482

>  <PUBCHEM_SHAPE_FINGERPRINT>
10130415 120 18408604785601312922
10967382 1 18122907800246273006
11132069 177 18343017761900884506
11769659 78 18334571352305036718
12032990 46 18410863186790476374
13380535 76 17907854007474116301
15375462 189 18187086156541886026
16945 1 18340494361008186996
17804303 29 18270401586276461994
193761 8 17690564078770717431
20510252 161 18200311001218357752
20711985 365 18336827485650994492
20871998 184 18201435840036091638
21501502 16 18124039185211377103
2334 1 18195810884360863148
23402539 116 18200582627761121135
23463225 33 18409732876226339054
23552423 10 17904765831678035047
23559900 14 18341608175805369454
2748010 2 18268427008804653533
7364860 26 17910677892615679296
81228 2 18267600025879245880

>  <PUBCHEM_SHAPE_MULTIPOLES>
250.57
5.27
2.28
0.63
3.33
0.89
0.01
-2.47
0.3
-0.47
0.13
0.12
-0.04
-0.3

>  <PUBCHEM_SHAPE_SELFOVERLAP>
526.75

>  <PUBCHEM_SHAPE_VOLUME>
143.8

>  <PUBCHEM_COORDINATE_TYPE>
2
5
10

$$$$
