13667281
 OpenBabel01182520543D

 19 19  0  0  0  0  0  0  0  0999 V2000
    2.4736   -0.1554   -1.1011 O   0  0  0  0  0  0  0  0  0  0  0  0
   -0.0110    1.8829    0.1124 N   0  0  0  0  0  0  0  0  0  0  0  0
   -1.8643    0.4047    0.0849 N   0  0  0  0  0  0  0  0  0  0  0  0
    2.4833   -0.2645    1.1657 N   0  0  0  0  0  0  0  0  0  0  0  0
   -0.8091    2.9711   -0.1321 N   0  0  0  0  0  0  0  0  0  0  0  0
    0.3803   -0.4868   -0.0258 C   0  0  0  0  0  0  0  0  0  0  0  0
   -0.5219    0.5618    0.0558 C   0  0  0  0  0  0  0  0  0  0  0  0
   -0.1281   -1.7798   -0.0810 C   0  0  0  0  0  0  0  0  0  0  0  0
   -1.5036   -1.9819   -0.0532 C   0  0  0  0  0  0  0  0  0  0  0  0
    1.8224   -0.2857   -0.0553 C   0  0  0  0  0  0  0  0  0  0  0  0
   -2.3214   -0.8664    0.0297 C   0  0  0  0  0  0  0  0  0  0  0  0
    0.5365   -2.6373   -0.1460 H   0  0  0  0  0  0  0  0  0  0  0  0
   -1.9223   -2.9808   -0.0952 H   0  0  0  0  0  0  0  0  0  0  0  0
    0.8518    2.0303    0.6237 H   0  0  0  0  0  0  0  0  0  0  0  0
   -3.4011   -0.9700    0.0544 H   0  0  0  0  0  0  0  0  0  0  0  0
    1.9927   -0.3757    2.0474 H   0  0  0  0  0  0  0  0  0  0  0  0
    3.4884   -0.1357    1.2127 H   0  0  0  0  0  0  0  0  0  0  0  0
   -0.2171    3.7555   -0.4016 H   0  0  0  0  0  0  0  0  0  0  0  0
   -1.2622    3.2468    0.7382 H   0  0  0  0  0  0  0  0  0  0  0  0
  1 10  2  0  0  0  0
  2  5  1  0  0  0  0
  2  7  1  0  0  0  0
  2 14  1  0  0  0  0
  3  7  1  0  0  0  0
  3 11  2  0  0  0  0
  4 10  1  0  0  0  0
  4 16  1  0  0  0  0
  4 17  1  0  0  0  0
  5 18  1  0  0  0  0
  5 19  1  0  0  0  0
  6  7  2  0  0  0  0
  6  8  1  0  0  0  0
  6 10  1  0  0  0  0
  8  9  2  0  0  0  0
  8 12  1  0  0  0  0
  9 11  1  0  0  0  0
  9 13  1  0  0  0  0
 11 15  1  0  0  0  0
M  END
>  <PUBCHEM_COMPOUND_CID>
13667281

>  <PUBCHEM_CONFORMER_RMSD>
0.4

>  <PUBCHEM_CONFORMER_DIVERSEORDER>
1
8
5
10
6
3
4
11
2
9
7

>  <PUBCHEM_MMFF94_PARTIAL_CHARGES>
19
1 -0.57
10 0.54
11 0.16
12 0.15
13 0.15
14 0.4
15 0.15
16 0.37
17 0.37
18 0.36
19 0.36
2 -0.51
3 -0.62
4 -0.8
5 -0.71
6 0.09
7 0.41
8 -0.15
9 -0.15

>  <PUBCHEM_EFFECTIVE_ROTOR_COUNT>
2

>  <PUBCHEM_PHARMACOPHORE_FEATURES>
6
1 1 acceptor
1 2 donor
1 3 acceptor
1 4 donor
1 5 donor
6 3 6 7 8 9 11 rings

>  <PUBCHEM_HEAVY_ATOM_COUNT>
11

>  <PUBCHEM_ATOM_DEF_STEREO_COUNT>
0

>  <PUBCHEM_ATOM_UDEF_STEREO_COUNT>
0

>  <PUBCHEM_BOND_DEF_STEREO_COUNT>
0

>  <PUBCHEM_BOND_UDEF_STEREO_COUNT>
0

>  <PUBCHEM_ISOTOPIC_ATOM_COUNT>
0

>  <PUBCHEM_COMPONENT_COUNT>
1

>  <PUBCHEM_CACTVS_TAUTO_COUNT>
7

>  <PUBCHEM_CONFORMER_ID>
00D08BD100000001

>  <PUBCHEM_MMFF94_ENERGY>
42.2171

>  <PUBCHEM_FEATURE_SELFOVERLAP>
31.994

>  <PUBCHEM_SHAPE_FINGERPRINT>
10857977 72 18270109240178453650
12423570 1 7895074811334626907
12524768 44 18200031888120173134
161256 15 17543925953922629511
16945 1 18410575058983127823
18185500 45 18335701697207690090
193761 8 17690281508719991919
21040471 1 17978510836635614528
23552423 10 17615686671188808423
23559900 14 17553487986503108662
241688 4 18339643437903247763
2748010 2 18268144434506076173
5084963 1 18129388094363480326

>  <PUBCHEM_SHAPE_MULTIPOLES>
200.58
3.01
2.4
0.77
0.68
2.12
0.02
-1.18
0.06
-0.63
-0.09
0.45
-0.13
-0.04

>  <PUBCHEM_SHAPE_SELFOVERLAP>
417.752

>  <PUBCHEM_SHAPE_VOLUME>
113.4

>  <PUBCHEM_COORDINATE_TYPE>
2
5
10

$$$$
