137076368
 OpenBabel01182520543D

 21 22  0  0  0  0  0  0  0  0999 V2000
    2.9907   -0.0719   -1.1329 S   0  0  0  0  0  0  0  0  0  0  0  0
    3.7039   -1.2938    0.3580 S   0  0  0  0  0  0  0  0  0  0  0  0
   -0.7677    2.8282    0.1711 O   0  0  0  0  0  0  0  0  0  0  0  0
    0.9154    1.3638   -0.4311 N   0  0  0  0  0  0  0  0  0  0  0  0
    0.5484   -0.9698   -0.6002 N   0  0  0  0  0  0  0  0  0  0  0  0
   -1.5629   -1.8552   -0.1522 N   0  0  0  0  0  0  0  0  0  0  0  0
   -1.2849    0.5284    0.0454 C   0  0  0  0  0  0  0  0  0  0  0  0
   -0.7903   -0.7467   -0.2274 C   0  0  0  0  0  0  0  0  0  0  0  0
   -0.3784    1.6896   -0.0584 C   0  0  0  0  0  0  0  0  0  0  0  0
   -2.6208    0.6774    0.4091 C   0  0  0  0  0  0  0  0  0  0  0  0
    1.3154    0.0687   -0.6815 C   0  0  0  0  0  0  0  0  0  0  0  0
   -3.4270   -0.4508    0.4908 C   0  0  0  0  0  0  0  0  0  0  0  0
   -2.8568   -1.6803    0.2035 C   0  0  0  0  0  0  0  0  0  0  0  0
    4.2149   -0.0877    1.6057 C   0  0  0  0  0  0  0  0  0  0  0  0
   -3.0433    1.6530    0.6293 H   0  0  0  0  0  0  0  0  0  0  0  0
    1.5971    2.1110   -0.5230 H   0  0  0  0  0  0  0  0  0  0  0  0
   -4.4712   -0.3712    0.7710 H   0  0  0  0  0  0  0  0  0  0  0  0
   -3.4466   -2.5899    0.2537 H   0  0  0  0  0  0  0  0  0  0  0  0
    4.6260   -0.6199    2.4679 H   0  0  0  0  0  0  0  0  0  0  0  0
    3.3593    0.5031    1.9437 H   0  0  0  0  0  0  0  0  0  0  0  0
    4.9905    0.5726    1.2084 H   0  0  0  0  0  0  0  0  0  0  0  0
  1  2  1  0  0  0  0
  1 11  1  0  0  0  0
  2 14  1  0  0  0  0
  3  9  2  0  0  0  0
  4  9  1  0  0  0  0
  4 11  1  0  0  0  0
  4 16  1  0  0  0  0
  5  8  1  0  0  0  0
  5 11  2  0  0  0  0
  6  8  1  0  0  0  0
  6 13  2  0  0  0  0
  7  8  2  0  0  0  0
  7  9  1  0  0  0  0
  7 10  1  0  0  0  0
 10 12  2  0  0  0  0
 10 15  1  0  0  0  0
 12 13  1  0  0  0  0
 12 17  1  0  0  0  0
 13 18  1  0  0  0  0
 14 19  1  0  0  0  0
 14 20  1  0  0  0  0
 14 21  1  0  0  0  0
M  END
>  <PUBCHEM_COMPOUND_CID>
137076368

>  <PUBCHEM_CONFORMER_RMSD>
0.6

>  <PUBCHEM_CONFORMER_DIVERSEORDER>
1
6
4
7
9
8
3
5
2

>  <PUBCHEM_MMFF94_PARTIAL_CHARGES>
18
1 -0.14
10 -0.15
11 0.65
12 -0.15
13 0.16
14 0.23
15 0.15
16 0.37
17 0.15
18 0.15
2 -0.23
3 -0.57
4 -0.49
5 -0.63
6 -0.62
7 0.09
8 0.49
9 0.54

>  <PUBCHEM_EFFECTIVE_ROTOR_COUNT>
2

>  <PUBCHEM_PHARMACOPHORE_FEATURES>
6
1 14 hydrophobe
1 3 acceptor
1 4 donor
1 6 acceptor
6 4 5 7 8 9 11 rings
6 6 7 8 10 12 13 rings

>  <PUBCHEM_HEAVY_ATOM_COUNT>
14

>  <PUBCHEM_ATOM_DEF_STEREO_COUNT>
0

>  <PUBCHEM_ATOM_UDEF_STEREO_COUNT>
0

>  <PUBCHEM_BOND_DEF_STEREO_COUNT>
0

>  <PUBCHEM_BOND_UDEF_STEREO_COUNT>
0

>  <PUBCHEM_ISOTOPIC_ATOM_COUNT>
0

>  <PUBCHEM_COMPONENT_COUNT>
1

>  <PUBCHEM_CACTVS_TAUTO_COUNT>
-1

>  <PUBCHEM_CONFORMER_ID>
082B9E9000000001

>  <PUBCHEM_MMFF94_ENERGY>
23.2692

>  <PUBCHEM_FEATURE_SELFOVERLAP>
30.482

>  <PUBCHEM_SHAPE_FINGERPRINT>
10130415 120 18335147530509679991
11132069 177 18271811198225949327
11578080 2 17604689158583561948
11769659 78 17894912948999373870
12251169 10 18272083924786768914
12382932 28 18342465824037914211
13083527 12 17411032342575090735
14289901 80 15985104098083007278
15375462 189 18115038492468216242
16945 1 18340218387963749421
17804303 29 18053386496783642942
18186145 218 11241963781027369670
19049666 15 17628642951459950166
193761 8 17617956733430101287
20388701 513 18341612577471790084
20510252 161 18200316498639372416
20671657 53 16370717124248738446
20871998 184 18272933778212840838
21501925 9 18340484568546159526
21650355 55 18410565202080572082
22959321 94 18334856104394431506
232386 152 18335988644136220894
23402539 116 18272644624325130815
23419403 2 16265397220152803663
23463225 33 18337400416918319406
23532345 42 18343021129276511786
23552423 10 17832998513199979693
23559900 14 18271254807431342670
2748010 2 18269845370494163989
33382 64 16081667654894420611
53812654 25 18341333370011017071
5902787 121 18263932205339026298
7364860 26 17840319035542446957
81228 2 18196391250391137777
90316 7 18335702693761623504

>  <PUBCHEM_SHAPE_MULTIPOLES>
275
6.49
2.07
1.03
4.47
0.86
0.16
-2.5
2.22
-1.07
0.06
1.17
-0.03
-0.18

>  <PUBCHEM_SHAPE_SELFOVERLAP>
560.719

>  <PUBCHEM_SHAPE_VOLUME>
163.1

>  <PUBCHEM_COORDINATE_TYPE>
2
5
10

$$$$
