137185173
 OpenBabel01182520543D

 25 26  0  0  0  0  0  0  0  0999 V2000
   -0.2641    2.7573   -0.0014 O   0  0  0  0  0  0  0  0  0  0  0  0
    1.2201    0.9859    0.0000 N   0  0  0  0  0  0  0  0  0  0  0  0
    0.4873   -1.2624    0.0000 N   0  0  0  0  0  0  0  0  0  0  0  0
   -1.7937   -1.7490    0.0001 N   0  0  0  0  0  0  0  0  0  0  0  0
    2.8764   -0.7888    0.0023 C   0  0  0  0  0  0  0  0  0  0  0  0
    1.4346   -0.3778    0.0004 C   0  0  0  0  0  0  0  0  0  0  0  0
    3.5428   -0.2637   -1.2607 C   0  0  0  0  0  0  0  0  0  0  0  0
    3.5562   -0.2597    1.2564 C   0  0  0  0  0  0  0  0  0  0  0  0
   -1.1446    0.5686    0.0001 C   0  0  0  0  0  0  0  0  0  0  0  0
   -0.8379   -0.7909   -0.0001 C   0  0  0  0  0  0  0  0  0  0  0  0
   -0.0444    1.5519   -0.0001 C   0  0  0  0  0  0  0  0  0  0  0  0
   -2.4790    0.9668    0.0008 C   0  0  0  0  0  0  0  0  0  0  0  0
   -3.4721   -0.0044    0.0013 C   0  0  0  0  0  0  0  0  0  0  0  0
   -3.0817   -1.3338    0.0008 C   0  0  0  0  0  0  0  0  0  0  0  0
    2.9247   -1.8845    0.0039 H   0  0  0  0  0  0  0  0  0  0  0  0
    3.6172    0.8288   -1.2768 H   0  0  0  0  0  0  0  0  0  0  0  0
    2.9886   -0.5712   -2.1546 H   0  0  0  0  0  0  0  0  0  0  0  0
    4.5604   -0.6604   -1.3457 H   0  0  0  0  0  0  0  0  0  0  0  0
    3.6291    0.8329    1.2684 H   0  0  0  0  0  0  0  0  0  0  0  0
    4.5748   -0.6555    1.3322 H   0  0  0  0  0  0  0  0  0  0  0  0
    3.0106   -0.5649    2.1563 H   0  0  0  0  0  0  0  0  0  0  0  0
    2.0095    1.6245    0.0003 H   0  0  0  0  0  0  0  0  0  0  0  0
   -2.7579    2.0161    0.0012 H   0  0  0  0  0  0  0  0  0  0  0  0
   -4.5209    0.2697    0.0019 H   0  0  0  0  0  0  0  0  0  0  0  0
   -3.8208   -2.1284    0.0010 H   0  0  0  0  0  0  0  0  0  0  0  0
  1 11  2  0  0  0  0
  2  6  1  0  0  0  0
  2 11  1  0  0  0  0
  2 22  1  0  0  0  0
  3  6  2  0  0  0  0
  3 10  1  0  0  0  0
  4 10  1  0  0  0  0
  4 14  2  0  0  0  0
  5  6  1  0  0  0  0
  5  7  1  0  0  0  0
  5  8  1  0  0  0  0
  5 15  1  0  0  0  0
  7 16  1  0  0  0  0
  7 17  1  0  0  0  0
  7 18  1  0  0  0  0
  8 19  1  0  0  0  0
  8 20  1  0  0  0  0
  8 21  1  0  0  0  0
  9 10  2  0  0  0  0
  9 11  1  0  0  0  0
  9 12  1  0  0  0  0
 12 13  2  0  0  0  0
 12 23  1  0  0  0  0
 13 14  1  0  0  0  0
 13 24  1  0  0  0  0
 14 25  1  0  0  0  0
M  END
>  <PUBCHEM_COMPOUND_CID>
137185173

>  <PUBCHEM_CONFORMER_RMSD>
0.4

>  <PUBCHEM_CONFORMER_DIVERSEORDER>
2
3
1
4
5

>  <PUBCHEM_MMFF94_PARTIAL_CHARGES>
16
1 -0.57
10 0.49
11 0.54
12 -0.15
13 -0.15
14 0.16
2 -0.49
22 0.37
23 0.15
24 0.15
25 0.15
3 -0.63
4 -0.62
5 0.06
6 0.45
9 0.09

>  <PUBCHEM_EFFECTIVE_ROTOR_COUNT>
1

>  <PUBCHEM_PHARMACOPHORE_FEATURES>
6
1 1 acceptor
1 2 donor
1 4 acceptor
3 5 7 8 hydrophobe
6 2 3 6 9 10 11 rings
6 4 9 10 12 13 14 rings

>  <PUBCHEM_HEAVY_ATOM_COUNT>
14

>  <PUBCHEM_ATOM_DEF_STEREO_COUNT>
0

>  <PUBCHEM_ATOM_UDEF_STEREO_COUNT>
0

>  <PUBCHEM_BOND_DEF_STEREO_COUNT>
0

>  <PUBCHEM_BOND_UDEF_STEREO_COUNT>
0

>  <PUBCHEM_ISOTOPIC_ATOM_COUNT>
0

>  <PUBCHEM_COMPONENT_COUNT>
1

>  <PUBCHEM_CACTVS_TAUTO_COUNT>
-1

>  <PUBCHEM_CONFORMER_ID>
082D479500000002

>  <PUBCHEM_MMFF94_ENERGY>
34.4329

>  <PUBCHEM_FEATURE_SELFOVERLAP>
30.482

>  <PUBCHEM_SHAPE_FINGERPRINT>
10130415 120 18333448763522392011
10465860 71 18268168555179567612
11132069 177 18341327820876204315
11543360 7 15719678769965227715
12032990 46 18412270544589093031
12382932 28 18340764862401439859
13296908 3 18202002131484689966
14144814 61 18409166605978484835
14289901 80 16200424780133688426
14911166 2 18409725154196777591
14993402 34 18411420609442565927
15375462 189 18113056021569243427
15536298 74 18271528718543668864
16945 1 18338516339584569093
18175812 5 17704071789587161070
18186145 218 16660366969790732618
19026448 4 16558748996733399843
19026448 5 16515405148854842151
193761 8 17762056940285592583
20388701 513 18339347587913876184
20510252 161 18200028435003611744
20645476 183 17676784157159120238
20871998 184 18201717323386394095
21501502 16 18193840564235613221
21501925 9 18339632455571742355
22802520 49 17914906331084412438
2334 1 18194401314738627953
23402539 116 18270948081687998143
23463225 33 18408322189643295686
23532345 42 18341608256845336800
23552423 10 18046347710709290653
23559900 14 18342176606073945590
2748010 2 18339636866566536709
5902787 121 18262513818164536170
7364860 26 18055074529851034216
77492 1 17676209044053066502
81228 2 18267314139929015264

>  <PUBCHEM_SHAPE_MULTIPOLES>
267.3
5.91
1.87
0.84
1.87
0.92
0
-1.67
0.01
-0.87
0
0.87
-0.05
0

>  <PUBCHEM_SHAPE_SELFOVERLAP>
573.096

>  <PUBCHEM_SHAPE_VOLUME>
147.8

>  <PUBCHEM_COORDINATE_TYPE>
2
5
10

$$$$
