137161106
 OpenBabel01182520543D

 23 25  0  0  0  0  0  0  0  0999 V2000
    0.5955   -2.8259   -0.0623 O   0  0  0  0  0  0  0  0  0  0  0  0
   -1.0698   -1.2472    0.2103 N   0  0  0  0  0  0  0  0  0  0  0  0
   -0.5990    1.0755    0.2787 N   0  0  0  0  0  0  0  0  0  0  0  0
    1.5995    1.8265    0.0705 N   0  0  0  0  0  0  0  0  0  0  0  0
   -2.8741    0.3585    0.4972 C   0  0  0  0  0  0  0  0  0  0  0  0
   -3.8417   -0.1861   -0.5071 C   0  0  0  0  0  0  0  0  0  0  0  0
   -3.5542    1.2848   -0.4624 C   0  0  0  0  0  0  0  0  0  0  0  0
   -1.4279    0.0822    0.3202 C   0  0  0  0  0  0  0  0  0  0  0  0
    0.2422   -1.6573    0.0405 C   0  0  0  0  0  0  0  0  0  0  0  0
    0.7628    0.7636    0.1092 C   0  0  0  0  0  0  0  0  0  0  0  0
    1.2175   -0.5495   -0.0105 C   0  0  0  0  0  0  0  0  0  0  0  0
    2.5799   -0.7862   -0.1757 C   0  0  0  0  0  0  0  0  0  0  0  0
    3.4516    0.2944   -0.2173 C   0  0  0  0  0  0  0  0  0  0  0  0
    2.9176    1.5666   -0.0913 C   0  0  0  0  0  0  0  0  0  0  0  0
   -3.2077    0.3928    1.5295 H   0  0  0  0  0  0  0  0  0  0  0  0
   -4.8064   -0.5224   -0.1471 H   0  0  0  0  0  0  0  0  0  0  0  0
   -3.4670   -0.7408   -1.3588 H   0  0  0  0  0  0  0  0  0  0  0  0
   -2.9848    1.7080   -1.2810 H   0  0  0  0  0  0  0  0  0  0  0  0
   -4.3258    1.9376   -0.0727 H   0  0  0  0  0  0  0  0  0  0  0  0
   -1.7895   -1.9629    0.2570 H   0  0  0  0  0  0  0  0  0  0  0  0
    2.9730   -1.7937   -0.2724 H   0  0  0  0  0  0  0  0  0  0  0  0
    4.5180    0.1465   -0.3448 H   0  0  0  0  0  0  0  0  0  0  0  0
    3.5587    2.4417   -0.1180 H   0  0  0  0  0  0  0  0  0  0  0  0
  1  9  2  0  0  0  0
  2  8  1  0  0  0  0
  2  9  1  0  0  0  0
  2 20  1  0  0  0  0
  3  8  2  0  0  0  0
  3 10  1  0  0  0  0
  4 10  1  0  0  0  0
  4 14  2  0  0  0  0
  5  6  1  0  0  0  0
  5  7  1  0  0  0  0
  5  8  1  0  0  0  0
  5 15  1  0  0  0  0
  6  7  1  0  0  0  0
  6 16  1  0  0  0  0
  6 17  1  0  0  0  0
  7 18  1  0  0  0  0
  7 19  1  0  0  0  0
  9 11  1  0  0  0  0
 10 11  2  0  0  0  0
 11 12  1  0  0  0  0
 12 13  2  0  0  0  0
 12 21  1  0  0  0  0
 13 14  1  0  0  0  0
 13 22  1  0  0  0  0
 14 23  1  0  0  0  0
M  END
>  <PUBCHEM_COMPOUND_CID>
137161106

>  <PUBCHEM_CONFORMER_RMSD>
0.6

>  <PUBCHEM_CONFORMER_DIVERSEORDER>
1

>  <PUBCHEM_MMFF94_PARTIAL_CHARGES>
23
1 -0.57
10 0.49
11 0.09
12 -0.15
13 -0.15
14 0.16
15 0.1
16 0.1
17 0.1
18 0.1
19 0.1
2 -0.49
20 0.37
21 0.15
22 0.15
23 0.15
3 -0.63
4 -0.62
5 -0.1
6 -0.2
7 -0.2
8 0.51
9 0.54

>  <PUBCHEM_EFFECTIVE_ROTOR_COUNT>
1.6

>  <PUBCHEM_PHARMACOPHORE_FEATURES>
5
1 1 acceptor
1 2 donor
1 4 acceptor
6 2 3 8 9 10 11 rings
6 4 10 11 12 13 14 rings

>  <PUBCHEM_HEAVY_ATOM_COUNT>
14

>  <PUBCHEM_ATOM_DEF_STEREO_COUNT>
0

>  <PUBCHEM_ATOM_UDEF_STEREO_COUNT>
0

>  <PUBCHEM_BOND_DEF_STEREO_COUNT>
0

>  <PUBCHEM_BOND_UDEF_STEREO_COUNT>
0

>  <PUBCHEM_ISOTOPIC_ATOM_COUNT>
0

>  <PUBCHEM_COMPONENT_COUNT>
1

>  <PUBCHEM_CACTVS_TAUTO_COUNT>
-1

>  <PUBCHEM_CONFORMER_ID>
082CE99200000001

>  <PUBCHEM_MMFF94_ENERGY>
34.8213

>  <PUBCHEM_FEATURE_SELFOVERLAP>
25.408

>  <PUBCHEM_SHAPE_FINGERPRINT>
1 1 18410011018023662943
10219947 1 18335141977106468700
10608611 8 18335700563547456925
10967382 1 18410576171310903866
10980938 120 18410009897095110387
11471102 20 18338513045560976509
11543360 7 15697713813197299192
12654215 9 18263076626341767068
13380535 76 18409448102467007146
13897977 150 18409450288800214745
14251717 144 18412259510886473639
14325111 11 18410575110628301897
14415576 193 18334577914888594693
14897335 6 18340764957175693136
14911166 2 18412272731201921356
14993402 34 18410860962392835172
15279308 100 18336552706596811684
15442244 35 17764310539938683305
15775835 57 18408042930875036660
16945 1 18339370660119344722
18186145 218 18343028786871099037
19021347 11 18410854317793714971
193761 8 17617944630064619936
20201158 50 18336548218329509547
20606313 2 18410572859965160100
20645476 183 17823998907484601270
20645477 70 18270397179676933479
21499 59 18410290341411454549
21524375 3 18335699472409323563
21639500 275 18338785758825495949
231179 274 17749097864512863981
2334 1 18195249042477440178
23402539 116 18272080591913421668
23402655 69 18342170043058176637
23463225 33 18335417916165688610
23559900 14 18128268955722177196
25 1 18335984181696627805
257057 1 17326605908497516954
2748010 2 18266752448395535338
2871803 45 18339630257334795415
3060560 45 18411696565064548126
3071541 37 18334862671104131854
528886 8 18411134757730546392
53812653 166 18412824711561033208
63268167 104 18341898467500723465
69090 78 18341327893906511527
7364860 26 18268710498158215502
81228 2 17546157962463718099

>  <PUBCHEM_SHAPE_MULTIPOLES>
267.3
6
2.05
0.67
3.01
0.92
-0.01
-2.1
-0.92
-0.81
-0.04
0.18
-0.03
0.09

>  <PUBCHEM_SHAPE_SELFOVERLAP>
585.481

>  <PUBCHEM_SHAPE_VOLUME>
144.5

>  <PUBCHEM_COORDINATE_TYPE>
2
5
10

$$$$
