137211979
 OpenBabel01182520543D

 17 18  0  0  0  0  0  0  0  0999 V2000
   -0.2930    2.8184   -0.0003 O   0  0  0  0  0  0  0  0  0  0  0  0
    1.3696    1.2137    0.0000 N   0  0  0  0  0  0  0  0  0  0  0  0
    0.8727   -1.1105    0.0000 N   0  0  0  0  0  0  0  0  0  0  0  0
   -1.3488   -1.8280   -0.0002 N   0  0  0  0  0  0  0  0  0  0  0  0
    4.1862   -0.8562    0.0003 N   0  0  0  0  0  0  0  0  0  0  0  0
   -0.9401    0.5465    0.0003 C   0  0  0  0  0  0  0  0  0  0  0  0
   -0.4964   -0.7772    0.0001 C   0  0  0  0  0  0  0  0  0  0  0  0
    0.0526    1.6431    0.0000 C   0  0  0  0  0  0  0  0  0  0  0  0
   -2.3084    0.8051    0.0003 C   0  0  0  0  0  0  0  0  0  0  0  0
    1.7005   -0.1194   -0.0002 C   0  0  0  0  0  0  0  0  0  0  0  0
   -3.1965   -0.2632    0.0001 C   0  0  0  0  0  0  0  0  0  0  0  0
   -2.6724   -1.5459   -0.0002 C   0  0  0  0  0  0  0  0  0  0  0  0
    3.0739   -0.5265   -0.0003 C   0  0  0  0  0  0  0  0  0  0  0  0
   -2.6939    1.8201    0.0004 H   0  0  0  0  0  0  0  0  0  0  0  0
    2.1057    1.9140   -0.0001 H   0  0  0  0  0  0  0  0  0  0  0  0
   -4.2679   -0.0979    0.0001 H   0  0  0  0  0  0  0  0  0  0  0  0
   -3.3267   -2.4116   -0.0005 H   0  0  0  0  0  0  0  0  0  0  0  0
  1  8  2  0  0  0  0
  2  8  1  0  0  0  0
  2 10  1  0  0  0  0
  2 15  1  0  0  0  0
  3  7  1  0  0  0  0
  3 10  2  0  0  0  0
  4  7  1  0  0  0  0
  4 12  2  0  0  0  0
  5 13  3  0  0  0  0
  6  7  2  0  0  0  0
  6  8  1  0  0  0  0
  6  9  1  0  0  0  0
  9 11  2  0  0  0  0
  9 14  1  0  0  0  0
 10 13  1  0  0  0  0
 11 12  1  0  0  0  0
 11 16  1  0  0  0  0
 12 17  1  0  0  0  0
M  END
>  <PUBCHEM_COMPOUND_CID>
137211979

>  <PUBCHEM_CONFORMER_RMSD>
0.4

>  <PUBCHEM_CONFORMER_DIVERSEORDER>
1

>  <PUBCHEM_MMFF94_PARTIAL_CHARGES>
17
1 -0.57
10 0.62
11 -0.15
12 0.16
13 0.45
14 0.15
15 0.37
16 0.15
17 0.15
2 -0.49
3 -0.63
4 -0.62
5 -0.56
6 0.09
7 0.49
8 0.54
9 -0.15

>  <PUBCHEM_EFFECTIVE_ROTOR_COUNT>
0

>  <PUBCHEM_PHARMACOPHORE_FEATURES>
6
1 1 acceptor
1 2 donor
1 4 acceptor
1 5 acceptor
6 2 3 6 7 8 10 rings
6 4 6 7 9 11 12 rings

>  <PUBCHEM_HEAVY_ATOM_COUNT>
13

>  <PUBCHEM_ATOM_DEF_STEREO_COUNT>
0

>  <PUBCHEM_ATOM_UDEF_STEREO_COUNT>
0

>  <PUBCHEM_BOND_DEF_STEREO_COUNT>
0

>  <PUBCHEM_BOND_UDEF_STEREO_COUNT>
0

>  <PUBCHEM_ISOTOPIC_ATOM_COUNT>
0

>  <PUBCHEM_COMPONENT_COUNT>
1

>  <PUBCHEM_CACTVS_TAUTO_COUNT>
-1

>  <PUBCHEM_CONFORMER_ID>
082DB04B00000001

>  <PUBCHEM_MMFF94_ENERGY>
28.7706

>  <PUBCHEM_FEATURE_SELFOVERLAP>
30.483

>  <PUBCHEM_SHAPE_FINGERPRINT>
10130415 120 18335138712894329186
11132069 177 18341326725960230754
12032990 46 18410579499926720298
13024252 1 16950570947738992211
14911166 2 18408875231671654935
15375462 189 18113900442040975242
16945 1 18338517434801171109
17990270 104 18121213448654150867
193761 8 17762338419520373254
20201158 50 18412544297183028535
20510252 161 18199746943115946776
20588541 1 18270684164447838047
20871998 184 18201718414461100582
21501502 16 18195533812100196767
2334 1 18266741479054238604
23402539 116 18272359846260139143
23463225 33 18409731772388036990
23552423 10 17904202877529886205
23559900 14 18341044113497798450
241688 4 18410009952977307761
2748010 2 18339354287704064252
3071541 158 18188206606077370101
528886 8 18339636742276073433
5493415 88 18337672048030655491
7364860 26 18053664960312954808
81228 2 18267037067399187040
8809292 202 18260552272372875739

>  <PUBCHEM_SHAPE_MULTIPOLES>
241.74
5.07
2.1
0.58
3.29
1.09
0
-2.28
0
-0.52
0
-0.04
0
0

>  <PUBCHEM_SHAPE_SELFOVERLAP>
529.51

>  <PUBCHEM_SHAPE_VOLUME>
126.4

>  <PUBCHEM_COORDINATE_TYPE>
2
5
10

$$$$
