137229802
 OpenBabel01182520543D

 24 25  0  0  0  0  0  0  0  0999 V2000
   -0.5378   -2.8188   -0.1726 O   0  0  0  0  0  0  0  0  0  0  0  0
    2.8469    0.3647   -0.0344 N   0  0  0  0  0  0  0  0  0  0  0  0
    1.1151   -1.2041   -0.1024 N   0  0  0  0  0  0  0  0  0  0  0  0
    0.6194    1.0927    0.0416 N   0  0  0  0  0  0  0  0  0  0  0  0
   -1.5980    1.8071    0.1153 N   0  0  0  0  0  0  0  0  0  0  0  0
    1.4971    0.1311   -0.0285 C   0  0  0  0  0  0  0  0  0  0  0  0
   -1.1918   -0.5587   -0.0305 C   0  0  0  0  0  0  0  0  0  0  0  0
   -0.7459    0.7580    0.0413 C   0  0  0  0  0  0  0  0  0  0  0  0
   -0.1990   -1.6434   -0.1088 C   0  0  0  0  0  0  0  0  0  0  0  0
    3.3809    1.5874   -0.5930 C   0  0  0  0  0  0  0  0  0  0  0  0
    3.7430   -0.4727    0.7324 C   0  0  0  0  0  0  0  0  0  0  0  0
   -2.5601   -0.8181   -0.0267 C   0  0  0  0  0  0  0  0  0  0  0  0
   -3.4478    0.2475    0.0489 C   0  0  0  0  0  0  0  0  0  0  0  0
   -2.9220    1.5273    0.1173 C   0  0  0  0  0  0  0  0  0  0  0  0
    1.8395   -1.9126   -0.1665 H   0  0  0  0  0  0  0  0  0  0  0  0
    3.3583    2.3893    0.1520 H   0  0  0  0  0  0  0  0  0  0  0  0
    2.8060    1.9084   -1.4686 H   0  0  0  0  0  0  0  0  0  0  0  0
    4.4171    1.4497   -0.9206 H   0  0  0  0  0  0  0  0  0  0  0  0
    4.0742   -1.3252    0.1309 H   0  0  0  0  0  0  0  0  0  0  0  0
    3.2612   -0.8494    1.6417 H   0  0  0  0  0  0  0  0  0  0  0  0
    4.6344    0.0805    1.0488 H   0  0  0  0  0  0  0  0  0  0  0  0
   -2.9454   -1.8318   -0.0813 H   0  0  0  0  0  0  0  0  0  0  0  0
   -4.5191    0.0825    0.0541 H   0  0  0  0  0  0  0  0  0  0  0  0
   -3.5746    2.3922    0.1777 H   0  0  0  0  0  0  0  0  0  0  0  0
  1  9  2  0  0  0  0
  2  6  1  0  0  0  0
  2 10  1  0  0  0  0
  2 11  1  0  0  0  0
  3  6  1  0  0  0  0
  3  9  1  0  0  0  0
  3 15  1  0  0  0  0
  4  6  2  0  0  0  0
  4  8  1  0  0  0  0
  5  8  1  0  0  0  0
  5 14  2  0  0  0  0
  7  8  2  0  0  0  0
  7  9  1  0  0  0  0
  7 12  1  0  0  0  0
 10 16  1  0  0  0  0
 10 17  1  0  0  0  0
 10 18  1  0  0  0  0
 11 19  1  0  0  0  0
 11 20  1  0  0  0  0
 11 21  1  0  0  0  0
 12 13  2  0  0  0  0
 12 22  1  0  0  0  0
 13 14  1  0  0  0  0
 13 23  1  0  0  0  0
 14 24  1  0  0  0  0
M  END
>  <PUBCHEM_COMPOUND_CID>
137229802

>  <PUBCHEM_CONFORMER_RMSD>
0.4

>  <PUBCHEM_CONFORMER_DIVERSEORDER>
1
2

>  <PUBCHEM_MMFF94_PARTIAL_CHARGES>
18
1 -0.57
10 0.37
11 0.37
12 -0.15
13 -0.15
14 0.16
15 0.37
2 -0.79
22 0.15
23 0.15
24 0.15
3 -0.49
4 -0.63
5 -0.62
6 0.56
7 0.09
8 0.49
9 0.54

>  <PUBCHEM_EFFECTIVE_ROTOR_COUNT>
1

>  <PUBCHEM_PHARMACOPHORE_FEATURES>
5
1 1 acceptor
1 3 donor
1 5 acceptor
6 3 4 6 7 8 9 rings
6 5 7 8 12 13 14 rings

>  <PUBCHEM_HEAVY_ATOM_COUNT>
14

>  <PUBCHEM_ATOM_DEF_STEREO_COUNT>
0

>  <PUBCHEM_ATOM_UDEF_STEREO_COUNT>
0

>  <PUBCHEM_BOND_DEF_STEREO_COUNT>
0

>  <PUBCHEM_BOND_UDEF_STEREO_COUNT>
0

>  <PUBCHEM_ISOTOPIC_ATOM_COUNT>
0

>  <PUBCHEM_COMPONENT_COUNT>
1

>  <PUBCHEM_CACTVS_TAUTO_COUNT>
-1

>  <PUBCHEM_CONFORMER_ID>
082DF5EA00000001

>  <PUBCHEM_MMFF94_ENERGY>
42.4744

>  <PUBCHEM_FEATURE_SELFOVERLAP>
25.407

>  <PUBCHEM_SHAPE_FINGERPRINT>
10967382 1 18411138017452461821
11132069 177 18342170051093937240
12251169 10 18335412474726844264
13380535 76 18337952294762789891
13538477 17 18261950872906846058
14144814 61 18409167727249733664
14325111 11 18410293605502437100
14614273 12 18261950722583250917
14648413 74 17833837066893980665
15309172 13 18411428301665585673
15536298 74 18128816344122549694
15669948 3 18268147737552341174
15775835 57 18408609166531401136
16945 1 18341048626543003959
17846911 113 18342452638509421137
18186145 218 18200320913723269252
193761 8 17547008988895499813
20510252 161 18272656769954794641
20645476 183 17896055384672809230
20871998 184 18128263487168194431
21524375 3 18413103940011547343
2334 1 18411984615651869823
23402539 116 18271230690435601381
23402655 69 18198046003519097013
23463225 33 18334853870958560066
23552423 10 18122628254137217631
23559900 14 18201442510990928484
2748010 2 18267592307817662327
43471831 8 18336825295144249355
528886 8 18411975849961209459
53812653 166 18273208673209931177
53812653 8 18409735096465922732
54173680 148 18193838369143958243
7364860 26 17911237221943370607

>  <PUBCHEM_SHAPE_MULTIPOLES>
262.32
5.78
2.13
0.66
2.64
0.79
-0.02
-1.93
-0.37
-0.4
0.18
0.22
-0.02
-0.45

>  <PUBCHEM_SHAPE_SELFOVERLAP>
562.779

>  <PUBCHEM_SHAPE_VOLUME>
145.2

>  <PUBCHEM_COORDINATE_TYPE>
2
5
10

$$$$
