137276602
 OpenBabel01182520543D

 19 20  0  0  0  0  0  0  0  0999 V2000
   -1.2220    2.2883    0.0005 O   0  0  0  0  0  0  0  0  0  0  0  0
   -2.3710    0.3011   -0.0002 N   0  0  0  0  0  0  0  0  0  0  0  0
    1.0422   -1.9174    0.0002 N   0  0  0  0  0  0  0  0  0  0  0  0
   -1.2884   -1.8030    0.0000 N   0  0  0  0  0  0  0  0  0  0  0  0
    0.0296    0.2674   -0.0001 C   0  0  0  0  0  0  0  0  0  0  0  0
    1.2831    0.8739   -0.0001 C   0  0  0  0  0  0  0  0  0  0  0  0
   -0.0548   -1.1250    0.0001 C   0  0  0  0  0  0  0  0  0  0  0  0
   -1.2147    1.0634    0.0000 C   0  0  0  0  0  0  0  0  0  0  0  0
    2.4188    0.0742   -0.0001 C   0  0  0  0  0  0  0  0  0  0  0  0
    1.4858    2.3531   -0.0002 C   0  0  0  0  0  0  0  0  0  0  0  0
    2.2467   -1.3007    0.0001 C   0  0  0  0  0  0  0  0  0  0  0  0
   -2.3554   -1.0753   -0.0002 C   0  0  0  0  0  0  0  0  0  0  0  0
    3.4195    0.4932   -0.0001 H   0  0  0  0  0  0  0  0  0  0  0  0
    1.0538    2.8054   -0.8987 H   0  0  0  0  0  0  0  0  0  0  0  0
    1.0544    2.8055    0.8985 H   0  0  0  0  0  0  0  0  0  0  0  0
    2.5499    2.6173   -0.0006 H   0  0  0  0  0  0  0  0  0  0  0  0
   -3.2659    0.7817   -0.0002 H   0  0  0  0  0  0  0  0  0  0  0  0
    3.1037   -1.9664    0.0002 H   0  0  0  0  0  0  0  0  0  0  0  0
   -3.3607   -1.5231   -0.0003 H   0  0  0  0  0  0  0  0  0  0  0  0
  1  8  2  0  0  0  0
  2  8  1  0  0  0  0
  2 12  1  0  0  0  0
  2 17  1  0  0  0  0
  3  7  2  0  0  0  0
  3 11  1  0  0  0  0
  4  7  1  0  0  0  0
  4 12  2  0  0  0  0
  5  6  2  0  0  0  0
  5  7  1  0  0  0  0
  5  8  1  0  0  0  0
  6  9  1  0  0  0  0
  6 10  1  0  0  0  0
  9 11  2  0  0  0  0
  9 13  1  0  0  0  0
 10 14  1  0  0  0  0
 10 15  1  0  0  0  0
 10 16  1  0  0  0  0
 11 18  1  0  0  0  0
 12 19  1  0  0  0  0
M  END
>  <PUBCHEM_COMPOUND_CID>
137276602

>  <PUBCHEM_CONFORMER_RMSD>
0.4

>  <PUBCHEM_CONFORMER_DIVERSEORDER>
1

>  <PUBCHEM_MMFF94_PARTIAL_CHARGES>
16
1 -0.57
10 0.14
11 0.16
12 0.45
13 0.15
17 0.37
18 0.15
19 0.06
2 -0.49
3 -0.62
4 -0.63
5 0.09
6 -0.14
7 0.49
8 0.54
9 -0.15

>  <PUBCHEM_EFFECTIVE_ROTOR_COUNT>
0

>  <PUBCHEM_PHARMACOPHORE_FEATURES>
5
1 1 acceptor
1 2 donor
3 3 4 7 cation
6 2 4 5 7 8 12 rings
6 3 5 6 7 9 11 rings

>  <PUBCHEM_HEAVY_ATOM_COUNT>
12

>  <PUBCHEM_ATOM_DEF_STEREO_COUNT>
0

>  <PUBCHEM_ATOM_UDEF_STEREO_COUNT>
0

>  <PUBCHEM_BOND_DEF_STEREO_COUNT>
0

>  <PUBCHEM_BOND_UDEF_STEREO_COUNT>
0

>  <PUBCHEM_ISOTOPIC_ATOM_COUNT>
0

>  <PUBCHEM_COMPONENT_COUNT>
1

>  <PUBCHEM_CACTVS_TAUTO_COUNT>
-1

>  <PUBCHEM_CONFORMER_ID>
082EACBA00000001

>  <PUBCHEM_MMFF94_ENERGY>
34.0169

>  <PUBCHEM_FEATURE_SELFOVERLAP>
25.408

>  <PUBCHEM_SHAPE_FINGERPRINT>
10967382 1 18194401323312634341
11206711 2 18409451362352135156
12423570 1 17917712422102589094
12524768 44 18265898132108124419
12897270 3 18338236080078224663
16945 1 18410855455875522438
193761 8 18410856555392580868
19973954 147 18410576188496060746
21040471 1 18194683653198826978
2334 1 17978229683649556291
23552423 10 18335139855360852606
23559900 14 17838902539145818254
241688 4 18122062001053129216
2748010 2 18122344845971432758
5084963 1 18202283610555719538
528886 8 18195523928963743346
66348 1 18410855434374208292

>  <PUBCHEM_SHAPE_MULTIPOLES>
226.14
3.24
2.46
0.59
0.38
0.65
0
-0.32
0
-0.36
0
-0.03
0
0

>  <PUBCHEM_SHAPE_SELFOVERLAP>
495.122

>  <PUBCHEM_SHAPE_VOLUME>
120.7

>  <PUBCHEM_COORDINATE_TYPE>
2
5
10

$$$$
