137244900
 OpenBabel01182520543D

 32 34  0  0  0  0  0  0  0  0999 V2000
    2.0492   -2.7871    0.2545 O   0  0  0  0  0  0  0  0  0  0  0  0
    0.0882   -1.5647    0.2744 N   0  0  0  0  0  0  0  0  0  0  0  0
    0.0776    0.7899    0.0566 N   0  0  0  0  0  0  0  0  0  0  0  0
    2.0857    1.9511   -0.1862 N   0  0  0  0  0  0  0  0  0  0  0  0
   -2.0353   -0.3917    0.3108 C   0  0  0  0  0  0  0  0  0  0  0  0
   -2.6346   -0.5853   -1.0832 C   0  0  0  0  0  0  0  0  0  0  0  0
   -2.5553    0.8854    0.9723 C   0  0  0  0  0  0  0  0  0  0  0  0
   -4.1603   -0.5491   -1.0479 C   0  0  0  0  0  0  0  0  0  0  0  0
   -4.0810    0.9167    1.0068 C   0  0  0  0  0  0  0  0  0  0  0  0
   -4.6785    0.7240   -0.3843 C   0  0  0  0  0  0  0  0  0  0  0  0
   -0.5424   -0.3387    0.2036 C   0  0  0  0  0  0  0  0  0  0  0  0
    1.4635   -1.7128    0.1954 C   0  0  0  0  0  0  0  0  0  0  0  0
    1.4808    0.7501   -0.0342 C   0  0  0  0  0  0  0  0  0  0  0  0
    2.1974   -0.4436    0.0285 C   0  0  0  0  0  0  0  0  0  0  0  0
    3.5863   -0.4111   -0.0673 C   0  0  0  0  0  0  0  0  0  0  0  0
    4.2225    0.8137   -0.2233 C   0  0  0  0  0  0  0  0  0  0  0  0
    3.4361    1.9531   -0.2766 C   0  0  0  0  0  0  0  0  0  0  0  0
   -2.3173   -1.2512    0.9338 H   0  0  0  0  0  0  0  0  0  0  0  0
   -2.3034   -1.5406   -1.5087 H   0  0  0  0  0  0  0  0  0  0  0  0
   -2.2697    0.1962   -1.7629 H   0  0  0  0  0  0  0  0  0  0  0  0
   -2.2093    1.7768    0.4330 H   0  0  0  0  0  0  0  0  0  0  0  0
   -2.1641    0.9674    1.9939 H   0  0  0  0  0  0  0  0  0  0  0  0
   -4.5328   -1.4234   -0.5000 H   0  0  0  0  0  0  0  0  0  0  0  0
   -4.5545   -0.6199   -2.0678 H   0  0  0  0  0  0  0  0  0  0  0  0
   -4.4215    1.8705    1.4254 H   0  0  0  0  0  0  0  0  0  0  0  0
   -4.4469    0.1265    1.6739 H   0  0  0  0  0  0  0  0  0  0  0  0
   -5.7713    0.6845   -0.3141 H   0  0  0  0  0  0  0  0  0  0  0  0
   -4.4292    1.5890   -1.0112 H   0  0  0  0  0  0  0  0  0  0  0  0
   -0.4699   -2.4064    0.3865 H   0  0  0  0  0  0  0  0  0  0  0  0
    4.1794   -1.3194   -0.0227 H   0  0  0  0  0  0  0  0  0  0  0  0
    5.3020    0.8760   -0.3011 H   0  0  0  0  0  0  0  0  0  0  0  0
    3.8872    2.9327   -0.3976 H   0  0  0  0  0  0  0  0  0  0  0  0
  1 12  2  0  0  0  0
  2 11  1  0  0  0  0
  2 12  1  0  0  0  0
  2 29  1  0  0  0  0
  3 11  2  0  0  0  0
  3 13  1  0  0  0  0
  4 13  1  0  0  0  0
  4 17  2  0  0  0  0
  5  6  1  0  0  0  0
  5  7  1  0  0  0  0
  5 11  1  0  0  0  0
  5 18  1  0  0  0  0
  6  8  1  0  0  0  0
  6 19  1  0  0  0  0
  6 20  1  0  0  0  0
  7  9  1  0  0  0  0
  7 21  1  0  0  0  0
  7 22  1  0  0  0  0
  8 10  1  0  0  0  0
  8 23  1  0  0  0  0
  8 24  1  0  0  0  0
  9 10  1  0  0  0  0
  9 25  1  0  0  0  0
  9 26  1  0  0  0  0
 10 27  1  0  0  0  0
 10 28  1  0  0  0  0
 12 14  1  0  0  0  0
 13 14  2  0  0  0  0
 14 15  1  0  0  0  0
 15 16  2  0  0  0  0
 15 30  1  0  0  0  0
 16 17  1  0  0  0  0
 16 31  1  0  0  0  0
 17 32  1  0  0  0  0
M  END
>  <PUBCHEM_COMPOUND_CID>
137244900

>  <PUBCHEM_CONFORMER_RMSD>
0.6

>  <PUBCHEM_CONFORMER_DIVERSEORDER>
1
8
4
2
3
6
7
5

>  <PUBCHEM_MMFF94_PARTIAL_CHARGES>
16
1 -0.57
11 0.45
12 0.54
13 0.49
14 0.09
15 -0.15
16 -0.15
17 0.16
2 -0.49
29 0.37
3 -0.63
30 0.15
31 0.15
32 0.15
4 -0.62
5 0.06

>  <PUBCHEM_EFFECTIVE_ROTOR_COUNT>
2.2

>  <PUBCHEM_PHARMACOPHORE_FEATURES>
6
1 1 acceptor
1 2 donor
1 4 acceptor
6 2 3 11 12 13 14 rings
6 4 13 14 15 16 17 rings
6 5 6 7 8 9 10 rings

>  <PUBCHEM_HEAVY_ATOM_COUNT>
17

>  <PUBCHEM_ATOM_DEF_STEREO_COUNT>
0

>  <PUBCHEM_ATOM_UDEF_STEREO_COUNT>
0

>  <PUBCHEM_BOND_DEF_STEREO_COUNT>
0

>  <PUBCHEM_BOND_UDEF_STEREO_COUNT>
0

>  <PUBCHEM_ISOTOPIC_ATOM_COUNT>
0

>  <PUBCHEM_COMPONENT_COUNT>
1

>  <PUBCHEM_CACTVS_TAUTO_COUNT>
-1

>  <PUBCHEM_CONFORMER_ID>
082E30E400000001

>  <PUBCHEM_MMFF94_ENERGY>
35.66

>  <PUBCHEM_FEATURE_SELFOVERLAP>
30.483

>  <PUBCHEM_SHAPE_FINGERPRINT>
10980938 120 18410291385067447258
11471102 20 18408322177090729212
11543360 7 16486695878252003796
11796584 16 15195017006984064836
12236239 1 18131632266710737321
12644460 14 18187363190749233506
13009979 54 17701261308838705746
13140716 1 18263362641647328210
13380535 76 18335139829865621898
13583140 156 16516237560751086433
13760787 19 18201717366942760919
14251717 144 18410571782091866614
14576447 43 18200861976855854727
14897335 6 18411418435899009131
15342168 16 18115318885382479733
15375358 24 17749107790171618449
15442244 35 18124317094985495537
15536298 74 18272371936529773502
15669948 3 17561073718595103999
16752209 62 17060046048189477799
16945 1 18335422348645829970
17834072 33 18413384359006396263
1813 80 17839187307597521302
18186145 218 18409171030053113164
19422 9 18202562852524229455
19862831 5 17846501447786098809
200 152 18273491295359569501
20279233 1 17022623065909928211
204376 136 18261396714545686420
20612939 158 18409166576045465710
20645476 183 18130781287613383839
20645477 70 18335416829238600535
21499 59 18336546122126960814
21524375 3 18337952402131626030
21639500 275 18336817662912972125
2255824 54 18338516326768882178
22854114 111 18409169904555442601
231179 274 17749101201517739020
23402539 116 18131349726329267612
23402655 69 18343021086095029181
23559900 14 18339920429114040498
23598291 2 18057887944125774935
25 1 18334575763199357546
2748010 2 18119823653467554274
3060560 45 18410573990042764702
3071541 37 18333454231553992326
3082319 5 18131348618206222861
4072396 5 18261375738342092610
474 4 18336266837604975344
4990 188 17846508036381943340
5104073 3 18408885165387705195
543358 83 18340208470863163737
57096353 35 18130217246616605517
603831 33 18059846299094403295
633830 44 18341623641318165964
7364860 26 18340491054347852470
77492 1 18059853935577890835
81539 233 18113338617769859618
8272917 22 18339645538263847503
84936 182 18129658724505993408
9981440 41 17264389424896993936

>  <PUBCHEM_SHAPE_MULTIPOLES>
329.04
8.83
1.98
0.9
4.15
0.62
-0.04
-2.77
-1.09
-1.82
0.13
0.87
-0.03
-0.87

>  <PUBCHEM_SHAPE_SELFOVERLAP>
711.128

>  <PUBCHEM_SHAPE_VOLUME>
177.7

>  <PUBCHEM_COORDINATE_TYPE>
2
5
10

$$$$
