13789949
 OpenBabel01182520543D

 22 24  0  0  0  0  0  0  0  0999 V2000
    1.4082    2.8370    0.0002 O   0  0  0  0  0  0  0  0  0  0  0  0
   -0.8182   -0.5250   -0.0005 N   0  0  0  0  0  0  0  0  0  0  0  0
   -0.6669    1.8811    0.0000 N   0  0  0  0  0  0  0  0  0  0  0  0
    1.1954   -1.8885    0.0000 N   0  0  0  0  0  0  0  0  0  0  0  0
    0.6020   -0.6650   -0.0004 C   0  0  0  0  0  0  0  0  0  0  0  0
    1.3729    0.5020   -0.0003 C   0  0  0  0  0  0  0  0  0  0  0  0
   -1.3543    0.7709   -0.0002 C   0  0  0  0  0  0  0  0  0  0  0  0
   -1.6715   -1.6209   -0.0005 C   0  0  0  0  0  0  0  0  0  0  0  0
    0.7089    1.8287   -0.0004 C   0  0  0  0  0  0  0  0  0  0  0  0
   -2.8526    0.9350    0.0005 C   0  0  0  0  0  0  0  0  0  0  0  0
    2.7672    0.4103    0.0001 C   0  0  0  0  0  0  0  0  0  0  0  0
   -3.0075   -1.4996    0.0000 C   0  0  0  0  0  0  0  0  0  0  0  0
   -3.5999   -0.1794    0.0006 C   0  0  0  0  0  0  0  0  0  0  0  0
    3.3696   -0.8389    0.0005 C   0  0  0  0  0  0  0  0  0  0  0  0
    2.5467   -1.9478    0.0004 C   0  0  0  0  0  0  0  0  0  0  0  0
   -1.2030   -2.5982   -0.0009 H   0  0  0  0  0  0  0  0  0  0  0  0
   -3.2832    1.9283    0.0009 H   0  0  0  0  0  0  0  0  0  0  0  0
    3.3943    1.2972    0.0001 H   0  0  0  0  0  0  0  0  0  0  0  0
   -3.6578   -2.3660    0.0000 H   0  0  0  0  0  0  0  0  0  0  0  0
   -4.6827   -0.1153    0.0011 H   0  0  0  0  0  0  0  0  0  0  0  0
    4.4485   -0.9405    0.0009 H   0  0  0  0  0  0  0  0  0  0  0  0
    2.9632   -2.9497    0.0008 H   0  0  0  0  0  0  0  0  0  0  0  0
  1  9  2  0  0  0  0
  2  5  1  0  0  0  0
  2  7  1  0  0  0  0
  2  8  1  0  0  0  0
  3  7  2  0  0  0  0
  3  9  1  0  0  0  0
  4  5  1  0  0  0  0
  4 15  2  0  0  0  0
  5  6  2  0  0  0  0
  6  9  1  0  0  0  0
  6 11  1  0  0  0  0
  7 10  1  0  0  0  0
  8 12  2  0  0  0  0
  8 16  1  0  0  0  0
 10 13  2  0  0  0  0
 10 17  1  0  0  0  0
 11 14  2  0  0  0  0
 11 18  1  0  0  0  0
 12 13  1  0  0  0  0
 12 19  1  0  0  0  0
 13 20  1  0  0  0  0
 14 15  1  0  0  0  0
 14 21  1  0  0  0  0
 15 22  1  0  0  0  0
M  END
>  <PUBCHEM_COMPOUND_CID>
13789949

>  <PUBCHEM_CONFORMER_RMSD>
0.4

>  <PUBCHEM_CONFORMER_DIVERSEORDER>
1

>  <PUBCHEM_MMFF94_PARTIAL_CHARGES>
22
1 -0.57
10 -0.14
11 -0.15
12 -0.15
13 -0.15
14 -0.15
15 0.16
16 0.15
17 0.15
18 0.15
19 0.15
2 -0.25
20 0.15
21 0.15
22 0.15
3 -0.66
4 -0.62
5 0.41
6 0.09
7 0.49
8 -0.05
9 0.69

>  <PUBCHEM_EFFECTIVE_ROTOR_COUNT>
0

>  <PUBCHEM_PHARMACOPHORE_FEATURES>
6
1 1 acceptor
1 3 donor
1 4 acceptor
6 2 3 5 6 7 9 rings
6 2 7 8 10 12 13 rings
6 4 5 6 11 14 15 rings

>  <PUBCHEM_HEAVY_ATOM_COUNT>
15

>  <PUBCHEM_ATOM_DEF_STEREO_COUNT>
0

>  <PUBCHEM_ATOM_UDEF_STEREO_COUNT>
0

>  <PUBCHEM_BOND_DEF_STEREO_COUNT>
0

>  <PUBCHEM_BOND_UDEF_STEREO_COUNT>
0

>  <PUBCHEM_ISOTOPIC_ATOM_COUNT>
0

>  <PUBCHEM_COMPONENT_COUNT>
1

>  <PUBCHEM_CACTVS_TAUTO_COUNT>
1

>  <PUBCHEM_CONFORMER_ID>
00D26AFD00000001

>  <PUBCHEM_MMFF94_ENERGY>
44.5781

>  <PUBCHEM_FEATURE_SELFOVERLAP>
30.505

>  <PUBCHEM_SHAPE_FINGERPRINT>
10608611 8 18408880759020420365
10967382 1 18266740370852423462
11132069 177 18410849937000757346
11471102 20 18410006654669011215
12032990 46 18411143493625759814
12251169 10 18341902883186013643
12382932 28 18340765940454152786
13140716 1 18267021845855508337
13221675 6 18410293609834288679
14144814 61 18411700967580177451
14648413 74 18335984288981276017
15196674 1 18410856546765515143
15375462 189 18187931629502034507
15442244 35 18340208501075627953
15536298 74 18272089452278024280
16945 1 18410575093390312965
17990270 104 18409445929176404762
193761 8 17906452478141221026
19591789 44 16606616570440148881
20201158 50 18409446990223380211
20559304 39 18410578430458433260
20645477 70 18264479767010208127
21267235 1 18410865334290149991
21501502 16 18339083812523597037
221490 88 18263933309124730379
22721475 48 18410296899721007287
2334 1 17906453577483803393
23402539 116 18198610051965800382
23463225 33 18409730634084624926
23552423 10 18265052603566569781
23559900 14 18196647390215813738
2748010 2 18122905322066026069
3071541 12 18267027339261559004
3071541 158 18333168370888255980
335352 9 18266741277269955861
34934 24 18337943498384827138
5104073 3 18411138026121726539
53812653 166 18342734161010405456
63268167 104 18410016537251687265
7364860 26 18269555099303202528
81228 2 18051142393065503336
8809292 202 18260553337466684403

>  <PUBCHEM_SHAPE_MULTIPOLES>
287.88
5.34
2.48
0.59
1.24
0.81
0
-1.71
0
-0.73
0
0.01
-0.02
0

>  <PUBCHEM_SHAPE_SELFOVERLAP>
643.317

>  <PUBCHEM_SHAPE_VOLUME>
148.3

>  <PUBCHEM_COORDINATE_TYPE>
2
5
10

$$$$
