138465930
 OpenBabel01182520543D

 17 17  0  0  0  0  0  0  0  0999 V2000
    3.1912   -1.5349    0.4252 S   0  0  0  0  0  0  0  0  0  0  0  0
    3.4229    1.1947   -0.4464 S   0  0  0  0  0  0  0  0  0  0  0  0
   -3.9315   -0.5788   -0.1166 O   0  0  0  0  0  0  0  0  0  0  0  0
    0.4722    1.2417    0.2373 N   0  0  0  0  0  0  0  0  0  0  0  0
    2.4233   -0.1000   -0.0267 N   0  0  0  0  0  0  0  0  0  0  0  0
    1.0121    0.0255   -0.0013 C   0  0  0  0  0  0  0  0  0  0  0  0
   -1.7096    0.2191    0.0386 C   0  0  0  0  0  0  0  0  0  0  0  0
    0.2692   -1.1225   -0.2254 C   0  0  0  0  0  0  0  0  0  0  0  0
   -1.1171   -1.0153   -0.2036 C   0  0  0  0  0  0  0  0  0  0  0  0
   -0.8782    1.3069    0.2510 C   0  0  0  0  0  0  0  0  0  0  0  0
   -3.1545    0.3635    0.0679 C   0  0  0  0  0  0  0  0  0  0  0  0
    0.6971   -2.0934   -0.4476 H   0  0  0  0  0  0  0  0  0  0  0  0
   -1.7175   -1.9029   -0.3840 H   0  0  0  0  0  0  0  0  0  0  0  0
   -1.2783    2.2975    0.4453 H   0  0  0  0  0  0  0  0  0  0  0  0
   -3.5458    1.3757    0.2668 H   0  0  0  0  0  0  0  0  0  0  0  0
    3.6606   -1.8753   -0.7839 H   0  0  0  0  0  0  0  0  0  0  0  0
    4.4017    0.4853   -1.0267 H   0  0  0  0  0  0  0  0  0  0  0  0
  1  5  1  0  0  0  0
  1 16  1  0  0  0  0
  2  5  1  0  0  0  0
  2 17  1  0  0  0  0
  3 11  2  0  0  0  0
  4  6  2  0  0  0  0
  4 10  1  0  0  0  0
  5  6  1  0  0  0  0
  6  8  1  0  0  0  0
  7  9  1  0  0  0  0
  7 10  2  0  0  0  0
  7 11  1  0  0  0  0
  8  9  2  0  0  0  0
  8 12  1  0  0  0  0
  9 13  1  0  0  0  0
 10 14  1  0  0  0  0
 11 15  1  0  0  0  0
M  END
>  <PUBCHEM_COMPOUND_CID>
138465930

>  <PUBCHEM_CONFORMER_RMSD>
0.4

>  <PUBCHEM_CONFORMER_DIVERSEORDER>
2
3
6
1
4
5

>  <PUBCHEM_MMFF94_PARTIAL_CHARGES>
17
1 -0.15
10 0.16
11 0.42
12 0.15
13 0.15
14 0.15
15 0.06
16 0.18
17 0.18
2 -0.15
3 -0.57
4 -0.62
5 -0.16
6 0.41
7 0.09
8 -0.15
9 -0.15

>  <PUBCHEM_EFFECTIVE_ROTOR_COUNT>
2

>  <PUBCHEM_PHARMACOPHORE_FEATURES>
3
1 3 acceptor
3 4 5 6 cation
6 4 6 7 8 9 10 rings

>  <PUBCHEM_HEAVY_ATOM_COUNT>
11

>  <PUBCHEM_ATOM_DEF_STEREO_COUNT>
0

>  <PUBCHEM_ATOM_UDEF_STEREO_COUNT>
0

>  <PUBCHEM_BOND_DEF_STEREO_COUNT>
0

>  <PUBCHEM_BOND_UDEF_STEREO_COUNT>
0

>  <PUBCHEM_ISOTOPIC_ATOM_COUNT>
0

>  <PUBCHEM_COMPONENT_COUNT>
1

>  <PUBCHEM_CACTVS_TAUTO_COUNT>
-1

>  <PUBCHEM_CONFORMER_ID>
0840D28A00000002

>  <PUBCHEM_MMFF94_ENERGY>
35.3486

>  <PUBCHEM_FEATURE_SELFOVERLAP>
15.223

>  <PUBCHEM_SHAPE_FINGERPRINT>
10130415 120 18410852136066224026
10219947 1 18410858754584368671
11062470 55 17603304868821546013
12032990 46 18412548678128765623
12932764 1 17203317905939860484
13760787 5 18410573981289052671
14325111 11 18410575067562467437
14993402 34 18272652380635140621
16945 1 17489301975541052125
18186145 218 17458624480113244183
19026448 4 16950284005300497219
193761 8 17548695635263376661
20559304 39 18411135806219492250
20645476 183 18115323291987263998
20645477 70 18335698312942467375
21293036 1 18341617052611486789
21501925 9 18337662028093461098
23235685 24 18342173384062457381
23402655 69 18198608949267338749
23463225 33 18338796715292420494
23552423 10 18334575720476674330
2748010 2 17909544300464302149
369184 2 18260547805558875658
5084963 1 18340765919169083930
7364860 26 18342738508086858510

>  <PUBCHEM_SHAPE_MULTIPOLES>
218.24
6.02
1.56
0.67
0.79
0.03
0
0.37
-0.15
-1.03
0.04
-0.15
0
-0.47

>  <PUBCHEM_SHAPE_SELFOVERLAP>
431.437

>  <PUBCHEM_SHAPE_VOLUME>
134

>  <PUBCHEM_COORDINATE_TYPE>
2
5
10

$$$$
