138571619
 OpenBabel01182520543D

 26 26  0  0  0  0  0  0  0  0999 V2000
   -1.8138    0.6051   -1.4094 O   0  0  0  0  0  0  0  0  0  0  0  0
   -2.1378   -0.8375    0.3768 N   0  0  0  0  0  0  0  0  0  0  0  0
    2.1157   -1.4183   -0.1207 N   0  0  0  0  0  0  0  0  0  0  0  0
    4.1845   -0.3531    0.3912 N   0  0  0  0  0  0  0  0  0  0  0  0
    0.0955   -0.0956   -0.2426 C   0  0  0  0  0  0  0  0  0  0  0  0
    0.8198    1.0519    0.0607 C   0  0  0  0  0  0  0  0  0  0  0  0
   -1.3400   -0.0660   -0.4758 C   0  0  0  0  0  0  0  0  0  0  0  0
   -3.5753   -0.9306    0.2587 C   0  0  0  0  0  0  0  0  0  0  0  0
    2.1913    0.9659    0.2732 C   0  0  0  0  0  0  0  0  0  0  0  0
    0.7842   -1.2955   -0.3207 C   0  0  0  0  0  0  0  0  0  0  0  0
    0.1509    2.3832    0.1633 C   0  0  0  0  0  0  0  0  0  0  0  0
    2.7863   -0.2815    0.1718 C   0  0  0  0  0  0  0  0  0  0  0  0
   -4.2612    0.2720    0.8735 C   0  0  0  0  0  0  0  0  0  0  0  0
   -3.8373   -1.0124   -0.8013 H   0  0  0  0  0  0  0  0  0  0  0  0
   -3.8884   -1.8488    0.7650 H   0  0  0  0  0  0  0  0  0  0  0  0
    2.7775    1.8486    0.5105 H   0  0  0  0  0  0  0  0  0  0  0  0
   -1.6927   -1.3592    1.1265 H   0  0  0  0  0  0  0  0  0  0  0  0
    0.2784   -2.2268   -0.5577 H   0  0  0  0  0  0  0  0  0  0  0  0
   -0.1507    2.7361   -0.8281 H   0  0  0  0  0  0  0  0  0  0  0  0
   -0.7287    2.3302    0.8136 H   0  0  0  0  0  0  0  0  0  0  0  0
    0.8177    3.1378    0.5951 H   0  0  0  0  0  0  0  0  0  0  0  0
   -4.0013    0.3712    1.9327 H   0  0  0  0  0  0  0  0  0  0  0  0
   -3.9663    1.1992    0.3714 H   0  0  0  0  0  0  0  0  0  0  0  0
   -5.3481    0.1728    0.7950 H   0  0  0  0  0  0  0  0  0  0  0  0
    4.7471    0.4629    0.1843 H   0  0  0  0  0  0  0  0  0  0  0  0
    4.6157   -1.2657    0.3101 H   0  0  0  0  0  0  0  0  0  0  0  0
  1  7  2  0  0  0  0
  2  7  1  0  0  0  0
  2  8  1  0  0  0  0
  2 17  1  0  0  0  0
  3 10  1  0  0  0  0
  3 12  2  0  0  0  0
  4 12  1  0  0  0  0
  4 25  1  0  0  0  0
  4 26  1  0  0  0  0
  5  6  1  0  0  0  0
  5  7  1  0  0  0  0
  5 10  2  0  0  0  0
  6  9  2  0  0  0  0
  6 11  1  0  0  0  0
  8 13  1  0  0  0  0
  8 14  1  0  0  0  0
  8 15  1  0  0  0  0
  9 12  1  0  0  0  0
  9 16  1  0  0  0  0
 10 18  1  0  0  0  0
 11 19  1  0  0  0  0
 11 20  1  0  0  0  0
 11 21  1  0  0  0  0
 13 22  1  0  0  0  0
 13 23  1  0  0  0  0
 13 24  1  0  0  0  0
M  END
>  <PUBCHEM_COMPOUND_CID>
138571619

>  <PUBCHEM_CONFORMER_RMSD>
0.6

>  <PUBCHEM_CONFORMER_DIVERSEORDER>
1
5
3
7
6
2
4

>  <PUBCHEM_MMFF94_PARTIAL_CHARGES>
17
1 -0.57
10 0.16
11 0.14
12 0.41
16 0.15
17 0.37
18 0.15
2 -0.73
25 0.4
26 0.4
3 -0.62
4 -0.9
5 0.09
6 -0.14
7 0.54
8 0.3
9 -0.15

>  <PUBCHEM_EFFECTIVE_ROTOR_COUNT>
3

>  <PUBCHEM_PHARMACOPHORE_FEATURES>
5
1 1 acceptor
1 2 donor
1 4 donor
3 3 4 12 cation
6 3 5 6 9 10 12 rings

>  <PUBCHEM_HEAVY_ATOM_COUNT>
13

>  <PUBCHEM_ATOM_DEF_STEREO_COUNT>
0

>  <PUBCHEM_ATOM_UDEF_STEREO_COUNT>
0

>  <PUBCHEM_BOND_DEF_STEREO_COUNT>
0

>  <PUBCHEM_BOND_UDEF_STEREO_COUNT>
0

>  <PUBCHEM_ISOTOPIC_ATOM_COUNT>
0

>  <PUBCHEM_COMPONENT_COUNT>
1

>  <PUBCHEM_CACTVS_TAUTO_COUNT>
-1

>  <PUBCHEM_CONFORMER_ID>
08426F6300000001

>  <PUBCHEM_MMFF94_ENERGY>
36.2951

>  <PUBCHEM_FEATURE_SELFOVERLAP>
25.372

>  <PUBCHEM_SHAPE_FINGERPRINT>
10130415 120 18408040727577958392
10219947 1 18342176695429462538
11471102 20 18411696612404127037
12032990 46 18410575067952955078
12251169 10 18341337772911742411
124424 183 18334010593064303393
14252887 29 18272662228995526914
15219456 202 18260820523086980325
15375462 189 18114177527598175530
15375462 478 17846785096237879017
15501101 241 18260832652269653669
16945 1 18271793623710254702
17844478 74 18113897156591369133
200 152 18059280055238728167
20201158 50 18333731320931380371
20281407 28 17749111097391492387
20671657 1 18122912198266871685
20871998 22 18271253703155482654
21061003 4 18411975875393688789
21501502 16 18120657095744434151
23380061 451 17822005389396927946
2748010 2 17983567512540247862
53655031 270 18273219676947791976
8809292 202 18113903800774167235

>  <PUBCHEM_SHAPE_MULTIPOLES>
246.72
6.35
1.66
0.84
2.93
0.75
0.13
-1.39
-1.88
-0.42
-0.02
0.44
0.08
0.1

>  <PUBCHEM_SHAPE_SELFOVERLAP>
505.697

>  <PUBCHEM_SHAPE_VOLUME>
142.8

>  <PUBCHEM_COORDINATE_TYPE>
2
5
10

$$$$
