138643510
 OpenBabel01182520543D

 51 52  0  0  0  0  0  0  0  0999 V2000
    4.7008   -0.7370   -3.0205 I   0  0  0  0  0  0  0  0  0  0  0  0
    1.6421   -2.3534    0.8530 O   0  0  0  0  0  0  0  0  0  0  0  0
    0.2180   -0.8299   -0.2089 N   0  0  0  0  0  0  0  0  0  0  0  0
    4.4535    0.8846   -0.2235 N   0  0  0  0  0  0  0  0  0  0  0  0
    3.4395   -0.8110   -1.5338 N   0  0  0  0  0  0  0  0  0  0  0  0
   -4.9817    0.1881   -0.6945 C   0  0  0  0  0  0  0  0  0  0  0  0
   -5.1159    1.6603   -0.2731 C   0  0  0  0  0  0  0  0  0  0  0  0
   -4.2199   -0.6659    0.3199 C   0  0  0  0  0  0  0  0  0  0  0  0
   -3.8192    2.3535    0.1728 C   0  0  0  0  0  0  0  0  0  0  0  0
   -3.9608   -2.0865   -0.1828 C   0  0  0  0  0  0  0  0  0  0  0  0
   -2.7231    2.3873   -0.9005 C   0  0  0  0  0  0  0  0  0  0  0  0
   -2.9447   -2.8567    0.6765 C   0  0  0  0  0  0  0  0  0  0  0  0
   -1.3364    2.6944   -0.3143 C   0  0  0  0  0  0  0  0  0  0  0  0
   -1.5895   -2.1648    0.9008 C   0  0  0  0  0  0  0  0  0  0  0  0
   -0.6553    1.4719    0.3223 C   0  0  0  0  0  0  0  0  0  0  0  0
   -0.8411   -1.8338   -0.3946 C   0  0  0  0  0  0  0  0  0  0  0  0
   -0.0498    0.5285   -0.7241 C   0  0  0  0  0  0  0  0  0  0  0  0
    1.4051   -1.2268    0.4192 C   0  0  0  0  0  0  0  0  0  0  0  0
    2.4686   -0.2306    0.5896 C   0  0  0  0  0  0  0  0  0  0  0  0
    3.4605   -0.0233   -0.3553 C   0  0  0  0  0  0  0  0  0  0  0  0
    2.4973    0.5439    1.7441 C   0  0  0  0  0  0  0  0  0  0  0  0
    3.5031    1.4886    1.9159 C   0  0  0  0  0  0  0  0  0  0  0  0
    4.4489    1.6189    0.9117 C   0  0  0  0  0  0  0  0  0  0  0  0
   -5.9846   -0.2301   -0.8442 H   0  0  0  0  0  0  0  0  0  0  0  0
   -4.4819    0.1376   -1.6689 H   0  0  0  0  0  0  0  0  0  0  0  0
   -5.5580    2.2228   -1.1044 H   0  0  0  0  0  0  0  0  0  0  0  0
   -5.8327    1.7194    0.5556 H   0  0  0  0  0  0  0  0  0  0  0  0
   -3.2627   -0.1878    0.5163 H   0  0  0  0  0  0  0  0  0  0  0  0
   -4.7656   -0.6998    1.2700 H   0  0  0  0  0  0  0  0  0  0  0  0
   -4.0606    3.3872    0.4524 H   0  0  0  0  0  0  0  0  0  0  0  0
   -3.4545    1.8848    1.0927 H   0  0  0  0  0  0  0  0  0  0  0  0
   -3.6125   -2.0608   -1.2213 H   0  0  0  0  0  0  0  0  0  0  0  0
   -4.9066   -2.6420   -0.1961 H   0  0  0  0  0  0  0  0  0  0  0  0
   -2.6840    1.4501   -1.4611 H   0  0  0  0  0  0  0  0  0  0  0  0
   -2.9812    3.1698   -1.6247 H   0  0  0  0  0  0  0  0  0  0  0  0
   -3.3939   -3.0533    1.6580 H   0  0  0  0  0  0  0  0  0  0  0  0
   -2.7717   -3.8360    0.2136 H   0  0  0  0  0  0  0  0  0  0  0  0
   -0.6904    3.0895   -1.1079 H   0  0  0  0  0  0  0  0  0  0  0  0
   -1.4297    3.4877    0.4373 H   0  0  0  0  0  0  0  0  0  0  0  0
   -1.7291   -1.2661    1.5097 H   0  0  0  0  0  0  0  0  0  0  0  0
   -0.9640   -2.8264    1.5135 H   0  0  0  0  0  0  0  0  0  0  0  0
    0.1443    1.8323    0.9777 H   0  0  0  0  0  0  0  0  0  0  0  0
   -1.3573    0.9431    0.9708 H   0  0  0  0  0  0  0  0  0  0  0  0
   -1.5158   -1.4761   -1.1758 H   0  0  0  0  0  0  0  0  0  0  0  0
   -0.3741   -2.7502   -0.7761 H   0  0  0  0  0  0  0  0  0  0  0  0
    0.8834    0.9656   -1.0934 H   0  0  0  0  0  0  0  0  0  0  0  0
   -0.6962    0.4328   -1.6023 H   0  0  0  0  0  0  0  0  0  0  0  0
    1.7443    0.4181    2.5176 H   0  0  0  0  0  0  0  0  0  0  0  0
    3.5456    2.1030    2.8078 H   0  0  0  0  0  0  0  0  0  0  0  0
    5.2539    2.3412    0.9973 H   0  0  0  0  0  0  0  0  0  0  0  0
    2.6473   -1.4405   -1.6153 H   0  0  0  0  0  0  0  0  0  0  0  0
  1  5  1  0  0  0  0
  2 18  2  0  0  0  0
  3 16  1  0  0  0  0
  3 17  1  0  0  0  0
  3 18  1  0  0  0  0
  4 20  1  0  0  0  0
  4 23  2  0  0  0  0
  5 20  1  0  0  0  0
  5 51  1  0  0  0  0
  6  7  1  0  0  0  0
  6  8  1  0  0  0  0
  6 24  1  0  0  0  0
  6 25  1  0  0  0  0
  7  9  1  0  0  0  0
  7 26  1  0  0  0  0
  7 27  1  0  0  0  0
  8 10  1  0  0  0  0
  8 28  1  0  0  0  0
  8 29  1  0  0  0  0
  9 11  1  0  0  0  0
  9 30  1  0  0  0  0
  9 31  1  0  0  0  0
 10 12  1  0  0  0  0
 10 32  1  0  0  0  0
 10 33  1  0  0  0  0
 11 13  1  0  0  0  0
 11 34  1  0  0  0  0
 11 35  1  0  0  0  0
 12 14  1  0  0  0  0
 12 36  1  0  0  0  0
 12 37  1  0  0  0  0
 13 15  1  0  0  0  0
 13 38  1  0  0  0  0
 13 39  1  0  0  0  0
 14 16  1  0  0  0  0
 14 40  1  0  0  0  0
 14 41  1  0  0  0  0
 15 17  1  0  0  0  0
 15 42  1  0  0  0  0
 15 43  1  0  0  0  0
 16 44  1  0  0  0  0
 16 45  1  0  0  0  0
 17 46  1  0  0  0  0
 17 47  1  0  0  0  0
 18 19  1  0  0  0  0
 19 20  2  0  0  0  0
 19 21  1  0  0  0  0
 21 22  2  0  0  0  0
 21 48  1  0  0  0  0
 22 23  1  0  0  0  0
 22 49  1  0  0  0  0
 23 50  1  0  0  0  0
M  END
>  <PUBCHEM_COMPOUND_CID>
138643510

>  <PUBCHEM_CONFORMER_RMSD>
0.8

>  <PUBCHEM_CONFORMER_DIVERSEORDER>
3
31
66
2
50
52
58
59
67
72
71
34
56
47
16
37
21
55
17
49
74
13
28
27
14
15
29
35
63
6
7
61
33
64
75
44
36
70
62
40
41
25
5
65
19
18
42
1
8
48
39
43
10
11
30
60
45
23
73
24
57
9
46
53
20
69
38
68
26
32
12
54
22
4
51

>  <PUBCHEM_MMFF94_PARTIAL_CHARGES>
17
1 0.06
16 0.3
17 0.3
18 0.54
19 0.09
2 -0.57
20 0.41
21 -0.15
22 -0.15
23 0.16
3 -0.66
4 -0.62
48 0.15
49 0.15
5 -0.56
50 0.15
51 0.4

>  <PUBCHEM_EFFECTIVE_ROTOR_COUNT>
5.6

>  <PUBCHEM_PHARMACOPHORE_FEATURES>
4
1 2 acceptor
1 4 acceptor
1 5 donor
6 4 19 20 21 22 23 rings

>  <PUBCHEM_HEAVY_ATOM_COUNT>
23

>  <PUBCHEM_ATOM_DEF_STEREO_COUNT>
0

>  <PUBCHEM_ATOM_UDEF_STEREO_COUNT>
0

>  <PUBCHEM_BOND_DEF_STEREO_COUNT>
0

>  <PUBCHEM_BOND_UDEF_STEREO_COUNT>
0

>  <PUBCHEM_ISOTOPIC_ATOM_COUNT>
0

>  <PUBCHEM_COMPONENT_COUNT>
1

>  <PUBCHEM_CACTVS_TAUTO_COUNT>
-1

>  <PUBCHEM_CONFORMER_ID>
0843883600000003

>  <PUBCHEM_MMFF94_ENERGY>
57.1341

>  <PUBCHEM_FEATURE_SELFOVERLAP>
20.297

>  <PUBCHEM_SHAPE_FINGERPRINT>
10498660 4 18408886247714129689
10670039 82 18187655699322893358
10759866 29 17895481302090394195
108634 29 18342457041104165448
11014199 57 17690838282642765159
11370993 144 17560814220860467409
11552529 35 15553301804701124277
11595378 159 17603856785104340761
12596602 18 16153439350229084153
12954195 1 18198362666534739430
13034934 17 17986944339807505579
13947920 75 17968393294383596100
14081887 123 18337941351249391049
14251757 17 18131634477970146144
14251757 5 18188791538000570335
14765038 42 18270694082413970641
14787075 74 18271791433293375009
14790565 3 18046625878519647888
14840074 17 17531545187070013997
15629462 23 17129038079165339672
20645477 70 17203335507201403030
21033648 29 17845364621741315187
21792961 116 17988658376685348092
22182313 1 18131072653946911596
23557571 272 18341054115964966940
23559900 14 18412267211968524918
268830 7 14635155564514164357
3052486 1 18187364358721699360
350125 39 18263073349862209498
563151 74 14129345156388184724
633830 44 17916292840980327629
6442390 28 18412257355018651778

>  <PUBCHEM_SHAPE_MULTIPOLES>
464.45
11.25
3.18
1.87
1.45
0.11
-0.91
-1.93
-3.61
3.18
0.42
-3.61
0.18
2.66

>  <PUBCHEM_SHAPE_SELFOVERLAP>
910.108

>  <PUBCHEM_SHAPE_VOLUME>
281.1

>  <PUBCHEM_COORDINATE_TYPE>
2
5
10

$$$$
