138643423
 OpenBabel01182520543D

 48 49  0  0  0  0  0  0  0  0999 V2000
    3.6066    1.6285    3.0258 I   0  0  0  0  0  0  0  0  0  0  0  0
    1.5675   -2.5445    0.7192 O   0  0  0  0  0  0  0  0  0  0  0  0
   -0.0553   -0.9368    0.1977 N   0  0  0  0  0  0  0  0  0  0  0  0
    4.0767    0.9951   -0.1194 N   0  0  0  0  0  0  0  0  0  0  0  0
    2.7487    0.4186    1.7580 N   0  0  0  0  0  0  0  0  0  0  0  0
   -4.4419    1.1940    0.3420 C   0  0  0  0  0  0  0  0  0  0  0  0
   -4.0937    2.4364   -0.4829 C   0  0  0  0  0  0  0  0  0  0  0  0
   -4.2004   -0.1262   -0.3947 C   0  0  0  0  0  0  0  0  0  0  0  0
   -2.6656    2.5530   -1.0434 C   0  0  0  0  0  0  0  0  0  0  0  0
   -4.2434   -1.3280    0.5544 C   0  0  0  0  0  0  0  0  0  0  0  0
   -1.5243    2.6644   -0.0205 C   0  0  0  0  0  0  0  0  0  0  0  0
   -3.5091   -2.5728    0.0283 C   0  0  0  0  0  0  0  0  0  0  0  0
   -1.0120    1.3611    0.6059 C   0  0  0  0  0  0  0  0  0  0  0  0
   -2.0397   -2.3735   -0.3825 C   0  0  0  0  0  0  0  0  0  0  0  0
   -0.4102    0.3734   -0.4004 C   0  0  0  0  0  0  0  0  0  0  0  0
   -1.1545   -1.7719    0.7162 C   0  0  0  0  0  0  0  0  0  0  0  0
    1.2453   -1.4621    0.2303 C   0  0  0  0  0  0  0  0  0  0  0  0
    2.3363   -0.6671   -0.3490 C   0  0  0  0  0  0  0  0  0  0  0  0
    3.0703    0.2484    0.3879 C   0  0  0  0  0  0  0  0  0  0  0  0
    2.6556   -0.8266   -1.6929 C   0  0  0  0  0  0  0  0  0  0  0  0
    3.6847   -0.0763   -2.2509 C   0  0  0  0  0  0  0  0  0  0  0  0
    4.3584    0.8129   -1.4290 C   0  0  0  0  0  0  0  0  0  0  0  0
   -3.8857    1.2249    1.2836 H   0  0  0  0  0  0  0  0  0  0  0  0
   -5.5009    1.2477    0.6251 H   0  0  0  0  0  0  0  0  0  0  0  0
   -4.7891    2.4876   -1.3308 H   0  0  0  0  0  0  0  0  0  0  0  0
   -4.3009    3.3229    0.1299 H   0  0  0  0  0  0  0  0  0  0  0  0
   -4.9494   -0.2542   -1.1854 H   0  0  0  0  0  0  0  0  0  0  0  0
   -3.2375   -0.0839   -0.8950 H   0  0  0  0  0  0  0  0  0  0  0  0
   -2.6487    3.4824   -1.6299 H   0  0  0  0  0  0  0  0  0  0  0  0
   -2.4708    1.7620   -1.7725 H   0  0  0  0  0  0  0  0  0  0  0  0
   -5.2917   -1.5914    0.7434 H   0  0  0  0  0  0  0  0  0  0  0  0
   -3.8303   -1.0574    1.5320 H   0  0  0  0  0  0  0  0  0  0  0  0
   -0.6735    3.1471   -0.5192 H   0  0  0  0  0  0  0  0  0  0  0  0
   -1.8303    3.3456    0.7831 H   0  0  0  0  0  0  0  0  0  0  0  0
   -3.5558   -3.3504    0.8008 H   0  0  0  0  0  0  0  0  0  0  0  0
   -4.0568   -2.9649   -0.8377 H   0  0  0  0  0  0  0  0  0  0  0  0
   -0.2381    1.6131    1.3425 H   0  0  0  0  0  0  0  0  0  0  0  0
   -1.8135    0.8992    1.1798 H   0  0  0  0  0  0  0  0  0  0  0  0
   -1.6228   -3.3484   -0.6674 H   0  0  0  0  0  0  0  0  0  0  0  0
   -2.0038   -1.7811   -1.3014 H   0  0  0  0  0  0  0  0  0  0  0  0
    0.4658    0.8436   -0.8529 H   0  0  0  0  0  0  0  0  0  0  0  0
   -1.0905    0.1718   -1.2285 H   0  0  0  0  0  0  0  0  0  0  0  0
   -0.7418   -2.5958    1.3102 H   0  0  0  0  0  0  0  0  0  0  0  0
   -1.7152   -1.1645    1.4259 H   0  0  0  0  0  0  0  0  0  0  0  0
    2.1093   -1.5309   -2.3146 H   0  0  0  0  0  0  0  0  0  0  0  0
    3.9508   -0.1837   -3.2962 H   0  0  0  0  0  0  0  0  0  0  0  0
    5.1689    1.4218   -1.8157 H   0  0  0  0  0  0  0  0  0  0  0  0
    1.9575   -0.1271    2.0845 H   0  0  0  0  0  0  0  0  0  0  0  0
  1  5  1  0  0  0  0
  2 17  2  0  0  0  0
  3 15  1  0  0  0  0
  3 16  1  0  0  0  0
  3 17  1  0  0  0  0
  4 19  1  0  0  0  0
  4 22  2  0  0  0  0
  5 19  1  0  0  0  0
  5 48  1  0  0  0  0
  6  7  1  0  0  0  0
  6  8  1  0  0  0  0
  6 23  1  0  0  0  0
  6 24  1  0  0  0  0
  7  9  1  0  0  0  0
  7 25  1  0  0  0  0
  7 26  1  0  0  0  0
  8 10  1  0  0  0  0
  8 27  1  0  0  0  0
  8 28  1  0  0  0  0
  9 11  1  0  0  0  0
  9 29  1  0  0  0  0
  9 30  1  0  0  0  0
 10 12  1  0  0  0  0
 10 31  1  0  0  0  0
 10 32  1  0  0  0  0
 11 13  1  0  0  0  0
 11 33  1  0  0  0  0
 11 34  1  0  0  0  0
 12 14  1  0  0  0  0
 12 35  1  0  0  0  0
 12 36  1  0  0  0  0
 13 15  1  0  0  0  0
 13 37  1  0  0  0  0
 13 38  1  0  0  0  0
 14 16  1  0  0  0  0
 14 39  1  0  0  0  0
 14 40  1  0  0  0  0
 15 41  1  0  0  0  0
 15 42  1  0  0  0  0
 16 43  1  0  0  0  0
 16 44  1  0  0  0  0
 17 18  1  0  0  0  0
 18 19  2  0  0  0  0
 18 20  1  0  0  0  0
 20 21  2  0  0  0  0
 20 45  1  0  0  0  0
 21 22  1  0  0  0  0
 21 46  1  0  0  0  0
 22 47  1  0  0  0  0
M  END
>  <PUBCHEM_COMPOUND_CID>
138643423

>  <PUBCHEM_CONFORMER_RMSD>
0.8

>  <PUBCHEM_CONFORMER_DIVERSEORDER>
1
44
64
48
29
62
41
27
37
63
60
2
51
56
78
40
61
67
70
50
71
18
80
81
84
45
11
65
46
55
35
30
54
12
15
77
36
14
28
42
83
82
8
16
7
19
25
31
22
79
38
21
13
75
20
26
47
5
66
76
57
59
24
33
58
17
53
39
3
68
9
69
72
85
32
43
34
10
74
49
23
52
73
4
6

>  <PUBCHEM_MMFF94_PARTIAL_CHARGES>
17
1 0.06
15 0.3
16 0.3
17 0.54
18 0.09
19 0.41
2 -0.57
20 -0.15
21 -0.15
22 0.16
3 -0.66
4 -0.62
45 0.15
46 0.15
47 0.15
48 0.4
5 -0.56

>  <PUBCHEM_EFFECTIVE_ROTOR_COUNT>
5.4

>  <PUBCHEM_PHARMACOPHORE_FEATURES>
4
1 2 acceptor
1 4 acceptor
1 5 donor
6 4 18 19 20 21 22 rings

>  <PUBCHEM_HEAVY_ATOM_COUNT>
22

>  <PUBCHEM_ATOM_DEF_STEREO_COUNT>
0

>  <PUBCHEM_ATOM_UDEF_STEREO_COUNT>
0

>  <PUBCHEM_BOND_DEF_STEREO_COUNT>
0

>  <PUBCHEM_BOND_UDEF_STEREO_COUNT>
0

>  <PUBCHEM_ISOTOPIC_ATOM_COUNT>
0

>  <PUBCHEM_COMPONENT_COUNT>
1

>  <PUBCHEM_CACTVS_TAUTO_COUNT>
-1

>  <PUBCHEM_CONFORMER_ID>
084387DF00000001

>  <PUBCHEM_MMFF94_ENERGY>
60.6004

>  <PUBCHEM_FEATURE_SELFOVERLAP>
20.297

>  <PUBCHEM_SHAPE_FINGERPRINT>
10369192 42 16913117398668438760
10498660 4 18409174298312365197
10670039 82 18261120676902803014
10759866 29 18114752516534785631
11014199 57 17764314233975022391
11112241 14 16843861274232007745
11595378 159 17821440274911916433
12173636 292 18120366567520171389
12553582 1 18263364849371703443
12596602 18 16660652898706253081
12788726 201 18113621226528175057
13034934 17 17844513607914236009
13224815 77 18335420123747256069
13617811 41 18188761753083439477
13965767 371 17531520989245399644
14081887 123 18339631287736432793
14251757 17 18060418019054694625
15961568 22 17906726256384089184
16752209 62 18334016124386270083
17349148 13 17458340840473075034
18186145 218 18129381510241997097
18915476 22 17060053791772847576
20600515 1 17975961378582501656
22182313 1 18059850714109942840
23419403 2 17632019761558050848
23557571 272 18342181119277413038
23559900 14 18340771438302409598
3052486 1 18261105305304585824
341906 21 18261384576751914705
350125 39 18262240997900620862
394222 165 16589434309550195706
469060 322 18042710427877046371
633830 44 17203325560020053161
7808743 9 18334861627743850012
81228 2 18337966665506941923

>  <PUBCHEM_SHAPE_MULTIPOLES>
443.87
9.77
3.15
2.01
1.83
0.29
-0.52
2.54
0.41
2.9
-0.45
-3.57
0.86
2.65

>  <PUBCHEM_SHAPE_SELFOVERLAP>
870.489

>  <PUBCHEM_SHAPE_VOLUME>
268.5

>  <PUBCHEM_COORDINATE_TYPE>
2
5
10

$$$$
