139494745
 OpenBabel01182520543D

 30 31  0  0  0  0  0  0  0  0999 V2000
   -0.4031   -2.2095    0.0001 O   0  0  0  0  0  0  0  0  0  0  0  0
   -1.1123    0.0245    0.0002 N   0  0  0  0  0  0  0  0  0  0  0  0
    0.5011    1.7693   -0.0011 N   0  0  0  0  0  0  0  0  0  0  0  0
   -1.7373    2.3500   -0.0007 N   0  0  0  0  0  0  0  0  0  0  0  0
    2.7764    1.2921   -0.0003 N   0  0  0  0  0  0  0  0  0  0  0  0
   -2.5243   -0.3547    0.0007 C   0  0  0  0  0  0  0  0  0  0  0  0
   -2.6384   -1.8835    0.0008 C   0  0  0  0  0  0  0  0  0  0  0  0
   -3.1957    0.2156    1.2545 C   0  0  0  0  0  0  0  0  0  0  0  0
   -3.2014    0.2106   -1.2532 C   0  0  0  0  0  0  0  0  0  0  0  0
   -0.1606   -1.0062   -0.0001 C   0  0  0  0  0  0  0  0  0  0  0  0
   -0.7505    1.3903   -0.0004 C   0  0  0  0  0  0  0  0  0  0  0  0
    1.2406   -0.5556   -0.0004 C   0  0  0  0  0  0  0  0  0  0  0  0
    1.5132    0.8036   -0.0005 C   0  0  0  0  0  0  0  0  0  0  0  0
    2.3013   -1.4605   -0.0002 C   0  0  0  0  0  0  0  0  0  0  0  0
    3.6042   -0.9790    0.0005 C   0  0  0  0  0  0  0  0  0  0  0  0
    3.7868    0.3930    0.0002 C   0  0  0  0  0  0  0  0  0  0  0  0
   -2.2948   -2.3625   -0.9250 H   0  0  0  0  0  0  0  0  0  0  0  0
   -2.2950   -2.3638    0.9260 H   0  0  0  0  0  0  0  0  0  0  0  0
   -3.7123   -2.1320   -0.0018 H   0  0  0  0  0  0  0  0  0  0  0  0
   -3.8954    1.0328    1.0512 H   0  0  0  0  0  0  0  0  0  0  0  0
   -2.4796    0.5423    2.0173 H   0  0  0  0  0  0  0  0  0  0  0  0
   -3.8174   -0.5479    1.7404 H   0  0  0  0  0  0  0  0  0  0  0  0
   -3.3392    1.2873   -1.3281 H   0  0  0  0  0  0  0  0  0  0  0  0
   -2.6494   -0.0942   -2.1517 H   0  0  0  0  0  0  0  0  0  0  0  0
   -4.2109   -0.2102   -1.3491 H   0  0  0  0  0  0  0  0  0  0  0  0
    2.1318   -2.5332   -0.0001 H   0  0  0  0  0  0  0  0  0  0  0  0
   -1.4601    3.3264   -0.0376 H   0  0  0  0  0  0  0  0  0  0  0  0
   -2.7187    2.2117    0.1652 H   0  0  0  0  0  0  0  0  0  0  0  0
    4.4504   -1.6564    0.0009 H   0  0  0  0  0  0  0  0  0  0  0  0
    4.7840    0.8206    0.0004 H   0  0  0  0  0  0  0  0  0  0  0  0
  1 10  2  0  0  0  0
  2  6  1  0  0  0  0
  2 10  1  0  0  0  0
  2 11  1  0  0  0  0
  3 11  2  0  0  0  0
  3 13  1  0  0  0  0
  4 11  1  0  0  0  0
  4 27  1  0  0  0  0
  4 28  1  0  0  0  0
  5 13  1  0  0  0  0
  5 16  2  0  0  0  0
  6  7  1  0  0  0  0
  6  8  1  0  0  0  0
  6  9  1  0  0  0  0
  7 17  1  0  0  0  0
  7 18  1  0  0  0  0
  7 19  1  0  0  0  0
  8 20  1  0  0  0  0
  8 21  1  0  0  0  0
  8 22  1  0  0  0  0
  9 23  1  0  0  0  0
  9 24  1  0  0  0  0
  9 25  1  0  0  0  0
 10 12  1  0  0  0  0
 12 13  2  0  0  0  0
 12 14  1  0  0  0  0
 14 15  2  0  0  0  0
 14 26  1  0  0  0  0
 15 16  1  0  0  0  0
 15 29  1  0  0  0  0
 16 30  1  0  0  0  0
M  END
>  <PUBCHEM_COMPOUND_CID>
139494745

>  <PUBCHEM_CONFORMER_RMSD>
0.6

>  <PUBCHEM_CONFORMER_DIVERSEORDER>
1

>  <PUBCHEM_MMFF94_PARTIAL_CHARGES>
18
1 -0.57
10 0.54
11 0.56
12 0.09
13 0.49
14 -0.15
15 -0.15
16 0.16
2 -0.42
26 0.15
27 0.4
28 0.4
29 0.15
3 -0.63
30 0.15
4 -0.85
5 -0.62
6 0.3

>  <PUBCHEM_EFFECTIVE_ROTOR_COUNT>
1

>  <PUBCHEM_PHARMACOPHORE_FEATURES>
6
1 1 acceptor
1 4 donor
1 5 acceptor
4 6 7 8 9 hydrophobe
6 2 3 10 11 12 13 rings
6 5 12 13 14 15 16 rings

>  <PUBCHEM_HEAVY_ATOM_COUNT>
16

>  <PUBCHEM_ATOM_DEF_STEREO_COUNT>
0

>  <PUBCHEM_ATOM_UDEF_STEREO_COUNT>
0

>  <PUBCHEM_BOND_DEF_STEREO_COUNT>
0

>  <PUBCHEM_BOND_UDEF_STEREO_COUNT>
0

>  <PUBCHEM_ISOTOPIC_ATOM_COUNT>
0

>  <PUBCHEM_COMPONENT_COUNT>
1

>  <PUBCHEM_CACTVS_TAUTO_COUNT>
-1

>  <PUBCHEM_CONFORMER_ID>
0850855900000001

>  <PUBCHEM_MMFF94_ENERGY>
82.0441

>  <PUBCHEM_FEATURE_SELFOVERLAP>
30.481

>  <PUBCHEM_SHAPE_FINGERPRINT>
10608611 8 18411415120479811592
10967382 1 18410856521090760838
11132069 177 18413383241903390578
11206711 2 18337390426861461772
11471102 20 18410288116454851870
12032990 46 18409735096534708826
12251169 10 18342750615051072587
12382932 28 18340772631939301490
13140716 1 18122344850567288624
13221675 6 18411419527158312390
13296908 3 18187365436721560843
14144814 61 18412263939082184330
14325111 11 18410856568414372960
14614273 12 18043243540133713765
15196674 1 18410575114770119462
15309172 13 18412269432218989251
15442244 35 18265894649375255986
15536298 74 18343865528684720834
15775835 57 18271815617741963897
16945 1 18410856572767369028
17844478 74 17967822651690163609
18186145 218 18412549799231138102
193761 8 17762338020051394022
200 152 18060407019775116677
20201158 50 18410289211777254118
20510252 161 18272652307737066176
20525323 117 18271805662213577829
20645477 70 18338227176622089463
21267235 1 18338807796165931182
21501502 16 18339360739087821120
22721475 48 18410298037977056984
2334 1 17617940670041553892
23402539 116 18341320146070502326
23463225 33 18409451388390996238
23493267 7 17458338607348725865
23559900 14 18412820288345909960
25 1 18116978997922215941
2748010 2 18265894661954046932
3286 77 16988547014078779562
3312278 4 18335700571931351419
335352 9 17978228257920958966
353137 74 18335978688243565241
5104073 3 18411699915513676802
528886 8 18412259545293736779
63268167 104 18411980299383823787
7364860 26 18125159591771126272
8809292 202 18260553350193304730
9709674 26 18342177735160071886

>  <PUBCHEM_SHAPE_MULTIPOLES>
303.48
6.03
2.09
0.8
2
0.1
0
-0.5
0
-0.37
0
-0.68
0.03
0

>  <PUBCHEM_SHAPE_SELFOVERLAP>
655.994

>  <PUBCHEM_SHAPE_VOLUME>
164.8

>  <PUBCHEM_COORDINATE_TYPE>
2
5
10

$$$$
