139678920
 OpenBabel01182520543D

 18 18  0  0  0  0  0  0  0  0999 V2000
   -1.2359    3.1145   -0.0383 S   0  0  0  0  0  0  0  0  0  0  0  0
    2.4600    0.0615   -1.1201 O   0  0  0  0  0  0  0  0  0  0  0  0
   -1.8803    0.1869    0.0421 N   0  0  0  0  0  0  0  0  0  0  0  0
   -0.1877    1.8469    0.0361 N   0  0  0  0  0  0  0  0  0  0  0  0
    2.5120    0.0038    1.1717 N   0  0  0  0  0  0  0  0  0  0  0  0
    0.4444   -0.4736   -0.0255 C   0  0  0  0  0  0  0  0  0  0  0  0
   -0.5606    0.4793    0.0163 C   0  0  0  0  0  0  0  0  0  0  0  0
    0.0710   -1.8130   -0.0419 C   0  0  0  0  0  0  0  0  0  0  0  0
   -1.2769   -2.1535   -0.0164 C   0  0  0  0  0  0  0  0  0  0  0  0
    1.8589   -0.1274   -0.0492 C   0  0  0  0  0  0  0  0  0  0  0  0
   -2.2049   -1.1254    0.0251 C   0  0  0  0  0  0  0  0  0  0  0  0
    0.8202   -2.5996   -0.0742 H   0  0  0  0  0  0  0  0  0  0  0  0
   -1.5912   -3.1908   -0.0285 H   0  0  0  0  0  0  0  0  0  0  0  0
   -3.2686   -1.3380    0.0464 H   0  0  0  0  0  0  0  0  0  0  0  0
    0.7573    2.0303    0.3598 H   0  0  0  0  0  0  0  0  0  0  0  0
    2.0352   -0.1391    2.0564 H   0  0  0  0  0  0  0  0  0  0  0  0
    3.4954    0.2498    1.2137 H   0  0  0  0  0  0  0  0  0  0  0  0
   -0.3799    4.0408   -0.4938 H   0  0  0  0  0  0  0  0  0  0  0  0
  1  4  1  0  0  0  0
  1 18  1  0  0  0  0
  2 10  2  0  0  0  0
  3  7  1  0  0  0  0
  3 11  2  0  0  0  0
  4  7  1  0  0  0  0
  4 15  1  0  0  0  0
  5 10  1  0  0  0  0
  5 16  1  0  0  0  0
  5 17  1  0  0  0  0
  6  7  2  0  0  0  0
  6  8  1  0  0  0  0
  6 10  1  0  0  0  0
  8  9  2  0  0  0  0
  8 12  1  0  0  0  0
  9 11  1  0  0  0  0
  9 13  1  0  0  0  0
 11 14  1  0  0  0  0
M  END
>  <PUBCHEM_COMPOUND_CID>
139678920

>  <PUBCHEM_CONFORMER_RMSD>
0.4

>  <PUBCHEM_CONFORMER_DIVERSEORDER>
2
13
8
9
3
7
11
10
1
6
4
5
12

>  <PUBCHEM_MMFF94_PARTIAL_CHARGES>
18
1 -0.15
10 0.54
11 0.16
12 0.15
13 0.15
14 0.15
15 0.4
16 0.37
17 0.37
18 0.18
2 -0.57
3 -0.62
4 -0.53
5 -0.8
6 0.09
7 0.41
8 -0.15
9 -0.15

>  <PUBCHEM_EFFECTIVE_ROTOR_COUNT>
2

>  <PUBCHEM_PHARMACOPHORE_FEATURES>
5
1 2 acceptor
1 3 acceptor
1 4 donor
1 5 donor
6 3 6 7 8 9 11 rings

>  <PUBCHEM_HEAVY_ATOM_COUNT>
11

>  <PUBCHEM_ATOM_DEF_STEREO_COUNT>
0

>  <PUBCHEM_ATOM_UDEF_STEREO_COUNT>
0

>  <PUBCHEM_BOND_DEF_STEREO_COUNT>
0

>  <PUBCHEM_BOND_UDEF_STEREO_COUNT>
0

>  <PUBCHEM_ISOTOPIC_ATOM_COUNT>
0

>  <PUBCHEM_COMPONENT_COUNT>
1

>  <PUBCHEM_CACTVS_TAUTO_COUNT>
-1

>  <PUBCHEM_CONFORMER_ID>
085354C800000002

>  <PUBCHEM_MMFF94_ENERGY>
41.2261

>  <PUBCHEM_FEATURE_SELFOVERLAP>
25.372

>  <PUBCHEM_SHAPE_FINGERPRINT>
1 1 17329707617930077061
100427 49 18050011287531801157
12524768 44 18127975419368919022
16945 1 18410856555434655479
193761 8 17834395623043474295
20511035 2 17834671591597759399
20711985 344 18411428297302065910
21040471 1 18122626050454945900
23552423 10 17399795394105976327
23559900 14 17769380418958393686
241688 4 18339644563205765337
2748010 2 18196086861974685181
5084963 1 18201447913194409134
7364860 26 17405718450317595237
81228 2 18411983550690144545

>  <PUBCHEM_SHAPE_MULTIPOLES>
209.41
3
2.88
0.78
1.6
1.23
0.01
-2.35
0.02
0.12
0.01
-0.34
-0.31
0.06

>  <PUBCHEM_SHAPE_SELFOVERLAP>
426.355

>  <PUBCHEM_SHAPE_VOLUME>
124

>  <PUBCHEM_COORDINATE_TYPE>
2
5
10

$$$$
