139691637
 OpenBabel01182520543D

 37 37  0  0  0  0  0  0  0  0999 V2000
   -0.8311    0.8722   -1.6006 O   0  0  0  0  0  0  0  0  0  0  0  0
   -0.8471    1.4685    0.6414 N   0  0  0  0  0  0  0  0  0  0  0  0
   -3.9748   -1.5912    0.7382 N   0  0  0  0  0  0  0  0  0  0  0  0
   -1.6948   -1.3299    1.3330 N   0  0  0  0  0  0  0  0  0  0  0  0
    0.3777    2.2175    0.6293 C   0  0  0  0  0  0  0  0  0  0  0  0
    3.6707    0.1744    0.3161 C   0  0  0  0  0  0  0  0  0  0  0  0
    5.8620   -0.7561   -0.6359 C   0  0  0  0  0  0  0  0  0  0  0  0
    4.5988    0.0576   -0.6566 C   0  0  0  0  0  0  0  0  0  0  0  0
    1.5145    1.2976    0.9427 C   0  0  0  0  0  0  0  0  0  0  0  0
    2.5269    1.0602    0.0924 C   0  0  0  0  0  0  0  0  0  0  0  0
   -2.6513    0.1328   -0.3205 C   0  0  0  0  0  0  0  0  0  0  0  0
   -1.3600    0.8470   -0.4924 C   0  0  0  0  0  0  0  0  0  0  0  0
    3.7343   -0.5735    1.6222 C   0  0  0  0  0  0  0  0  0  0  0  0
   -2.8134   -0.9218    0.5635 C   0  0  0  0  0  0  0  0  0  0  0  0
    5.6265   -2.1612   -1.1658 C   0  0  0  0  0  0  0  0  0  0  0  0
   -3.7521    0.5257   -1.0738 C   0  0  0  0  0  0  0  0  0  0  0  0
   -4.9642   -0.1386   -0.9220 C   0  0  0  0  0  0  0  0  0  0  0  0
   -5.0227   -1.1811   -0.0112 C   0  0  0  0  0  0  0  0  0  0  0  0
    0.4976    2.7096   -0.3418 H   0  0  0  0  0  0  0  0  0  0  0  0
    0.3042    2.9918    1.3993 H   0  0  0  0  0  0  0  0  0  0  0  0
    6.6131   -0.2519   -1.2555 H   0  0  0  0  0  0  0  0  0  0  0  0
    6.2875   -0.8013    0.3721 H   0  0  0  0  0  0  0  0  0  0  0  0
    4.4589    0.6167   -1.5822 H   0  0  0  0  0  0  0  0  0  0  0  0
    1.4877    0.8226    1.9198 H   0  0  0  0  0  0  0  0  0  0  0  0
    2.5039    1.5696   -0.8703 H   0  0  0  0  0  0  0  0  0  0  0  0
   -1.3529    1.3938    1.5196 H   0  0  0  0  0  0  0  0  0  0  0  0
    2.8372   -1.1874    1.7600 H   0  0  0  0  0  0  0  0  0  0  0  0
    3.8170    0.1247    2.4622 H   0  0  0  0  0  0  0  0  0  0  0  0
    4.5871   -1.2546    1.6851 H   0  0  0  0  0  0  0  0  0  0  0  0
    4.9072   -2.7066   -0.5457 H   0  0  0  0  0  0  0  0  0  0  0  0
    5.2437   -2.1386   -2.1918 H   0  0  0  0  0  0  0  0  0  0  0  0
    6.5647   -2.7254   -1.1685 H   0  0  0  0  0  0  0  0  0  0  0  0
   -3.6791    1.3479   -1.7806 H   0  0  0  0  0  0  0  0  0  0  0  0
   -5.8355    0.1505   -1.4983 H   0  0  0  0  0  0  0  0  0  0  0  0
   -5.9447   -1.7314    0.1444 H   0  0  0  0  0  0  0  0  0  0  0  0
   -1.8426   -2.1012    1.9726 H   0  0  0  0  0  0  0  0  0  0  0  0
   -0.7681   -1.2139    0.9423 H   0  0  0  0  0  0  0  0  0  0  0  0
  1 12  2  0  0  0  0
  2  5  1  0  0  0  0
  2 12  1  0  0  0  0
  2 26  1  0  0  0  0
  3 14  1  0  0  0  0
  3 18  2  0  0  0  0
  4 14  1  0  0  0  0
  4 36  1  0  0  0  0
  4 37  1  0  0  0  0
  5  9  1  0  0  0  0
  5 19  1  0  0  0  0
  5 20  1  0  0  0  0
  6  8  2  0  0  0  0
  6 10  1  0  0  0  0
  6 13  1  0  0  0  0
  7  8  1  0  0  0  0
  7 15  1  0  0  0  0
  7 21  1  0  0  0  0
  7 22  1  0  0  0  0
  8 23  1  0  0  0  0
  9 10  2  0  0  0  0
  9 24  1  0  0  0  0
 10 25  1  0  0  0  0
 11 12  1  0  0  0  0
 11 14  2  0  0  0  0
 11 16  1  0  0  0  0
 13 27  1  0  0  0  0
 13 28  1  0  0  0  0
 13 29  1  0  0  0  0
 15 30  1  0  0  0  0
 15 31  1  0  0  0  0
 15 32  1  0  0  0  0
 16 17  2  0  0  0  0
 16 33  1  0  0  0  0
 17 18  1  0  0  0  0
 17 34  1  0  0  0  0
 18 35  1  0  0  0  0
M  END
>  <PUBCHEM_COMPOUND_CID>
139691637

>  <PUBCHEM_CONFORMER_RMSD>
0.8

>  <PUBCHEM_CONFORMER_DIVERSEORDER>
4
72
9
50
56
54
105
71
49
86
103
60
35
46
45
74
33
83
92
97
77
59
42
68
70
57
64
31
90
85
48
99
79
47
93
76
5
106
25
84
69
18
88
34
24
65
104
75
10
32
67
29
102
40
62
78
52
80
6
58
91
36
101
98
66
55
63
21
95
26
96
8
1
30
53
89
28
37
22
51
39
87
41
17
43
81
73
94
107
19
11
38
27
100
15
44
2
14
82
7
61
12
3
16
23
20
13

>  <PUBCHEM_MMFF94_PARTIAL_CHARGES>
26
1 -0.57
10 -0.15
11 0.09
12 0.54
13 0.14
14 0.41
16 -0.15
17 -0.15
18 0.16
2 -0.73
23 0.15
24 0.15
25 0.15
26 0.37
3 -0.62
33 0.15
34 0.15
35 0.15
36 0.4
37 0.4
4 -0.9
5 0.44
6 -0.14
7 0.14
8 -0.29
9 -0.29

>  <PUBCHEM_EFFECTIVE_ROTOR_COUNT>
6

>  <PUBCHEM_PHARMACOPHORE_FEATURES>
8
1 1 acceptor
1 13 hydrophobe
1 15 hydrophobe
1 2 donor
1 3 acceptor
1 4 cation
1 4 donor
6 3 11 14 16 17 18 rings

>  <PUBCHEM_HEAVY_ATOM_COUNT>
18

>  <PUBCHEM_ATOM_DEF_STEREO_COUNT>
0

>  <PUBCHEM_ATOM_UDEF_STEREO_COUNT>
0

>  <PUBCHEM_BOND_DEF_STEREO_COUNT>
2

>  <PUBCHEM_BOND_UDEF_STEREO_COUNT>
0

>  <PUBCHEM_ISOTOPIC_ATOM_COUNT>
0

>  <PUBCHEM_COMPONENT_COUNT>
1

>  <PUBCHEM_CACTVS_TAUTO_COUNT>
-1

>  <PUBCHEM_CONFORMER_ID>
0853867500000004

>  <PUBCHEM_MMFF94_ENERGY>
41.8304

>  <PUBCHEM_FEATURE_SELFOVERLAP>
40.596

>  <PUBCHEM_SHAPE_FINGERPRINT>
11128504 68 15357693093724161404
11796584 16 18261106378851191938
12363563 72 18272939327574506360
12403259 118 11887951055627373507
12596602 18 15769486616580739190
12633257 1 14764341648437911444
12760667 363 18202285771087819110
12892183 10 13038916503626866564
13533116 47 17560796688276464104
13544592 145 18261387901230818073
13551218 46 17060061402502414982
13914758 101 16630529488904930361
13955234 65 17702375333925820672
14123256 34 18342465854271782806
1420 369 18060702763007724406
14251731 8 18187079551135262109
14251732 14 16443634596445735387
14251764 30 18343866636290917966
14252887 29 17988633130197850936
14386348 63 18341894104130520094
14455015 7 18343303681957743380
14617045 38 18040155115066564203
15188451 53 15338541830588809213
17804303 29 18187358887608675353
17834072 32 10881696719149795070
17870717 6 18186521003649932735
1813 80 17560814238062091516
193927 3 18272657822828209388
19784866 240 18412552010907336356
20325693 3 17458341949175971989
20374829 77 18260540143216010937
20403669 9 18131075905142430382
20645477 70 18341044224523597264
20871999 31 17385438825900442893
212916 134 12391515286716210628
2215653 11 18409719673728817599
22849339 104 17386017220514531187
22926399 37 12973600027936609573
23175994 123 18341891922266463481
23227448 37 11098153170261644265
23403322 49 18412829070878874928
23503953 91 13614230491399182508
23559900 14 18261667190011516421
239999 70 18336261332369434200
2767999 5 12035448363456580310
2838139 119 8070032125604233922
2871803 45 18335138679114709650
2916195 48 9511463307711433919
3004659 81 18113615682073425264
314194 84 17989203785211720660
3472631 163 12107795111772647146
351380 3 18202280303736999726
4259306 186 18342177748186963294
465052 167 18130793416099581791
5104073 3 17632294507243759480
59755656 520 17912084950141839937
7970288 3 18201720635339592038

>  <PUBCHEM_SHAPE_MULTIPOLES>
349.62
13.5
1.9
1.34
7.92
0.05
0.1
-8.57
-3.15
0.93
0.15
0.18
-0.19
1.47

>  <PUBCHEM_SHAPE_SELFOVERLAP>
706.918

>  <PUBCHEM_SHAPE_VOLUME>
203.1

>  <PUBCHEM_COORDINATE_TYPE>
2
5
10

$$$$
