139729466
 OpenBabel01182520543D

 25 27  0  0  0  0  0  0  0  0999 V2000
   -1.3056   -2.3727    1.3333 O   0  0  0  0  0  0  0  0  0  0  0  0
    0.0033    1.1566    0.5636 N   0  0  0  0  0  0  0  0  0  0  0  0
    2.2491    0.9211    0.7858 N   0  0  0  0  0  0  0  0  0  0  0  0
    0.1118   -1.7674   -0.3779 N   0  0  0  0  0  0  0  0  0  0  0  0
   -2.0571    1.9155   -0.1606 N   0  0  0  0  0  0  0  0  0  0  0  0
    1.0309   -0.8604   -0.4521 C   0  0  0  0  0  0  0  0  0  0  0  0
    1.0472    0.4274    0.3308 C   0  0  0  0  0  0  0  0  0  0  0  0
   -1.8186   -0.4460    0.1422 C   0  0  0  0  0  0  0  0  0  0  0  0
   -1.2916    0.8377    0.1379 C   0  0  0  0  0  0  0  0  0  0  0  0
    3.3088    0.5645    0.1287 C   0  0  0  0  0  0  0  0  0  0  0  0
    2.2145   -1.0484   -1.3170 C   0  0  0  0  0  0  0  0  0  0  0  0
    3.3139   -0.3383   -1.0531 C   0  0  0  0  0  0  0  0  0  0  0  0
   -0.9666   -1.5972    0.4472 C   0  0  0  0  0  0  0  0  0  0  0  0
   -3.1650   -0.6464   -0.1578 C   0  0  0  0  0  0  0  0  0  0  0  0
    4.6385    1.1075    0.5867 C   0  0  0  0  0  0  0  0  0  0  0  0
   -3.9553    0.4493   -0.4728 C   0  0  0  0  0  0  0  0  0  0  0  0
   -3.3581    1.6973   -0.4650 C   0  0  0  0  0  0  0  0  0  0  0  0
    2.1792   -1.7814   -2.1130 H   0  0  0  0  0  0  0  0  0  0  0  0
    4.2191   -0.4505   -1.6362 H   0  0  0  0  0  0  0  0  0  0  0  0
   -3.5980   -1.6424   -0.1609 H   0  0  0  0  0  0  0  0  0  0  0  0
    4.6428    2.1949    0.4676 H   0  0  0  0  0  0  0  0  0  0  0  0
    5.4661    0.6844    0.0117 H   0  0  0  0  0  0  0  0  0  0  0  0
    4.7841    0.8642    1.6433 H   0  0  0  0  0  0  0  0  0  0  0  0
   -5.0041    0.3310   -0.7190 H   0  0  0  0  0  0  0  0  0  0  0  0
   -3.9298    2.5879   -0.7048 H   0  0  0  0  0  0  0  0  0  0  0  0
  1 13  2  0  0  0  0
  2  7  2  0  0  0  0
  2  9  1  0  0  0  0
  3  7  1  0  0  0  0
  3 10  2  0  0  0  0
  4  6  2  0  0  0  0
  4 13  1  0  0  0  0
  5  9  1  0  0  0  0
  5 17  2  0  0  0  0
  6  7  1  0  0  0  0
  6 11  1  0  0  0  0
  8  9  2  0  0  0  0
  8 13  1  0  0  0  0
  8 14  1  0  0  0  0
 10 12  1  0  0  0  0
 10 15  1  0  0  0  0
 11 12  2  0  0  0  0
 11 18  1  0  0  0  0
 12 19  1  0  0  0  0
 14 16  2  0  0  0  0
 14 20  1  0  0  0  0
 15 21  1  0  0  0  0
 15 22  1  0  0  0  0
 15 23  1  0  0  0  0
 16 17  1  0  0  0  0
 16 24  1  0  0  0  0
 17 25  1  0  0  0  0
M  END
>  <PUBCHEM_COMPOUND_CID>
139729466

>  <PUBCHEM_CONFORMER_RMSD>
0.4

>  <PUBCHEM_CONFORMER_DIVERSEORDER>
1
2

>  <PUBCHEM_MMFF94_PARTIAL_CHARGES>
22
1 -0.57
10 0.37
11 -0.14
12 -0.14
13 0.69
14 -0.15
15 0.06
16 -0.15
17 0.16
18 0.15
19 0.15
2 -0.63
20 0.15
24 0.15
25 0.15
3 -0.66
4 -0.66
5 -0.62
6 0.44
7 0.66
8 0.09
9 0.49

>  <PUBCHEM_EFFECTIVE_ROTOR_COUNT>
0

>  <PUBCHEM_PHARMACOPHORE_FEATURES>
9
1 1 acceptor
1 3 acceptor
1 4 acceptor
1 4 donor
1 5 acceptor
3 2 3 7 cation
6 3 6 7 10 11 12 rings
6 5 8 9 14 16 17 rings
7 2 4 6 7 8 9 13 rings

>  <PUBCHEM_HEAVY_ATOM_COUNT>
17

>  <PUBCHEM_ATOM_DEF_STEREO_COUNT>
0

>  <PUBCHEM_ATOM_UDEF_STEREO_COUNT>
0

>  <PUBCHEM_BOND_DEF_STEREO_COUNT>
0

>  <PUBCHEM_BOND_UDEF_STEREO_COUNT>
0

>  <PUBCHEM_ISOTOPIC_ATOM_COUNT>
0

>  <PUBCHEM_COMPONENT_COUNT>
1

>  <PUBCHEM_CACTVS_TAUTO_COUNT>
-1

>  <PUBCHEM_CONFORMER_ID>
08541A3A00000001

>  <PUBCHEM_MMFF94_ENERGY>
62.8341

>  <PUBCHEM_FEATURE_SELFOVERLAP>
45.756

>  <PUBCHEM_SHAPE_FINGERPRINT>
10498660 4 18262231102364699053
10608611 8 18342175583249405624
11132069 177 18412261752822576221
116883 192 17907857654476746847
12035758 1 18265624354240466171
12077114 3 18339639044489411250
12138202 97 18409729581791283118
124424 183 18413110546262053318
13380535 76 18411415103041232714
13464514 151 18125165935094443901
13538477 17 17531249508150839826
13581323 91 17894352202226902003
13583140 156 16588029047242458697
13764800 53 18187377540182143651
13897977 150 18342459192650568269
14614273 12 18042114372041770821
15196674 1 18342174444882391301
15219456 202 18273498970265634876
15279308 132 18408887330162017379
15279308 16 18341613754313908666
15375358 24 18272367603076576976
15852999 172 18410857633540044550
16945 1 18260840322785864523
17357779 13 18124025991278092079
18186145 218 18268998595969033589
18534176 82 18334863860788830907
19049666 15 18339654355826593690
200 152 16558751204583875876
20201158 50 18202566185144336520
20279233 1 18272937141551859376
20510252 161 18413109454950080889
20645476 183 17749117702761277050
20645477 56 18334579057371072096
20645477 70 17560805385785776798
20828058 34 18408888412630821951
21249577 43 18342178877235847708
21501502 16 18268426824405740409
21524375 3 18263076630800413959
21639500 275 16845286194109224832
21947302 44 18271525286732794222
22182313 1 18199767954080173334
22802520 49 18198922343348735983
23402539 116 18335688490499493447
23419403 2 14976836726859646331
23493267 7 18260833726090638018
23559900 14 18412829058674591606
23590187 152 18270397308103861394
25 1 18268714905010620709
2748010 2 17835519697467559113
2871803 45 18339634565118018725
305870 269 17896312520032871515
3071541 236 18040719194554108267
3323516 105 18130788927985377269
353137 74 18340205168423761825
4028521 119 18411415086104151837
43471831 8 18187078408811410547
5262128 65 17272305539106790366
53812653 166 18412824659747092937
57483677 78 18334869285464310031
6333449 129 18411982485516896097
633830 44 18270678641452536381
69090 78 18131345328050472727
7364860 26 17978223864190987955
77492 1 16660364822148660142
81228 2 18189627218456207515
8809292 202 18410296938338841850
9709674 26 18341898514956568118

>  <PUBCHEM_SHAPE_MULTIPOLES>
324.06
7.04
1.95
0.99
2.5
0.38
0.05
-2.84
0.71
-0.83
-0.28
0.37
0.29
1.09

>  <PUBCHEM_SHAPE_SELFOVERLAP>
721.459

>  <PUBCHEM_SHAPE_VOLUME>
170.8

>  <PUBCHEM_COORDINATE_TYPE>
2
5
10

$$$$
