140084432
 OpenBabel01182520543D

 30 31  0  0  0  0  0  0  0  0999 V2000
   -6.1606   -0.0703   -0.0111 O   0  0  0  0  0  0  0  0  0  0  0  0
    6.1600   -0.0739    0.0123 O   0  0  0  0  0  0  0  0  0  0  0  0
    0.0067    1.4555   -0.0005 N   0  0  0  0  0  0  0  0  0  0  0  0
   -1.4077   -0.4619    0.0006 N   0  0  0  0  0  0  0  0  0  0  0  0
    1.4064   -0.4587   -0.0015 N   0  0  0  0  0  0  0  0  0  0  0  0
   -5.2136   -2.1587    0.0038 N   0  0  0  0  0  0  0  0  0  0  0  0
    5.2098   -2.1609   -0.0037 N   0  0  0  0  0  0  0  0  0  0  0  0
   -1.2903    0.8849    0.0007 C   0  0  0  0  0  0  0  0  0  0  0  0
    1.2910    0.8884   -0.0012 C   0  0  0  0  0  0  0  0  0  0  0  0
   -2.3669    1.7572    0.0019 C   0  0  0  0  0  0  0  0  0  0  0  0
    2.3688    1.7591   -0.0017 C   0  0  0  0  0  0  0  0  0  0  0  0
   -3.8075   -0.1688    0.0029 C   0  0  0  0  0  0  0  0  0  0  0  0
    3.8066   -0.1690   -0.0028 C   0  0  0  0  0  0  0  0  0  0  0  0
   -3.6462    1.2123    0.0030 C   0  0  0  0  0  0  0  0  0  0  0  0
    3.6473    1.2123   -0.0025 C   0  0  0  0  0  0  0  0  0  0  0  0
   -2.6665   -0.9550    0.0017 C   0  0  0  0  0  0  0  0  0  0  0  0
    2.6645   -0.9535   -0.0023 C   0  0  0  0  0  0  0  0  0  0  0  0
   -5.1303   -0.7684    0.0040 C   0  0  0  0  0  0  0  0  0  0  0  0
    5.1286   -0.7705   -0.0035 C   0  0  0  0  0  0  0  0  0  0  0  0
    0.0025    2.4701   -0.0596 H   0  0  0  0  0  0  0  0  0  0  0  0
   -2.2365    2.8345    0.0023 H   0  0  0  0  0  0  0  0  0  0  0  0
    2.2405    2.8367   -0.0012 H   0  0  0  0  0  0  0  0  0  0  0  0
   -4.5021    1.8817    0.0042 H   0  0  0  0  0  0  0  0  0  0  0  0
    4.5042    1.8805   -0.0030 H   0  0  0  0  0  0  0  0  0  0  0  0
   -2.6757   -2.0376    0.0011 H   0  0  0  0  0  0  0  0  0  0  0  0
    2.6722   -2.0361   -0.0020 H   0  0  0  0  0  0  0  0  0  0  0  0
   -4.4269   -2.7954    0.0110 H   0  0  0  0  0  0  0  0  0  0  0  0
   -6.1259   -2.6040   -0.0021 H   0  0  0  0  0  0  0  0  0  0  0  0
    4.4222   -2.7965   -0.0114 H   0  0  0  0  0  0  0  0  0  0  0  0
    6.1215   -2.6075    0.0025 H   0  0  0  0  0  0  0  0  0  0  0  0
  1 18  2  0  0  0  0
  2 19  2  0  0  0  0
  3  8  1  0  0  0  0
  3  9  1  0  0  0  0
  3 20  1  0  0  0  0
  4  8  2  0  0  0  0
  4 16  1  0  0  0  0
  5  9  2  0  0  0  0
  5 17  1  0  0  0  0
  6 18  1  0  0  0  0
  6 27  1  0  0  0  0
  6 28  1  0  0  0  0
  7 19  1  0  0  0  0
  7 29  1  0  0  0  0
  7 30  1  0  0  0  0
  8 10  1  0  0  0  0
  9 11  1  0  0  0  0
 10 14  2  0  0  0  0
 10 21  1  0  0  0  0
 11 15  2  0  0  0  0
 11 22  1  0  0  0  0
 12 14  1  0  0  0  0
 12 16  2  0  0  0  0
 12 18  1  0  0  0  0
 13 15  1  0  0  0  0
 13 17  2  0  0  0  0
 13 19  1  0  0  0  0
 14 23  1  0  0  0  0
 15 24  1  0  0  0  0
 16 25  1  0  0  0  0
 17 26  1  0  0  0  0
M  END
>  <PUBCHEM_COMPOUND_CID>
140084432

>  <PUBCHEM_CONFORMER_RMSD>
0.6

>  <PUBCHEM_CONFORMER_DIVERSEORDER>
1
37
13
39
10
17
18
23
27
16
3
38
15
12
19
26
22
32
35
9
31
5
28
2
25
14
6
30
21
36
24
20
29
33
34
4
11
8
7

>  <PUBCHEM_MMFF94_PARTIAL_CHARGES>
30
1 -0.57
10 -0.15
11 -0.15
12 0.09
13 0.09
14 -0.15
15 -0.15
16 0.16
17 0.16
18 0.54
19 0.54
2 -0.57
20 0.4
21 0.15
22 0.15
23 0.15
24 0.15
25 0.15
26 0.15
27 0.37
28 0.37
29 0.37
3 -0.6
30 0.37
4 -0.62
5 -0.62
6 -0.8
7 -0.8
8 0.41
9 0.41

>  <PUBCHEM_EFFECTIVE_ROTOR_COUNT>
4

>  <PUBCHEM_PHARMACOPHORE_FEATURES>
9
1 1 acceptor
1 2 acceptor
1 3 donor
1 6 donor
1 7 donor
3 3 4 8 cation
3 3 5 9 cation
6 4 8 10 12 14 16 rings
6 5 9 11 13 15 17 rings

>  <PUBCHEM_HEAVY_ATOM_COUNT>
19

>  <PUBCHEM_ATOM_DEF_STEREO_COUNT>
0

>  <PUBCHEM_ATOM_UDEF_STEREO_COUNT>
0

>  <PUBCHEM_BOND_DEF_STEREO_COUNT>
0

>  <PUBCHEM_BOND_UDEF_STEREO_COUNT>
0

>  <PUBCHEM_ISOTOPIC_ATOM_COUNT>
0

>  <PUBCHEM_COMPONENT_COUNT>
1

>  <PUBCHEM_CACTVS_TAUTO_COUNT>
-1

>  <PUBCHEM_CONFORMER_ID>
085984D000000001

>  <PUBCHEM_MMFF94_ENERGY>
69.0466

>  <PUBCHEM_FEATURE_SELFOVERLAP>
46.07

>  <PUBCHEM_SHAPE_FINGERPRINT>
10366900 7 16950282897041127888
10968037 39 18335140911964934023
11315181 36 18413110562824854729
11806522 49 18408887309204203844
12107183 9 17689998933856835001
12236239 1 18413390938268675937
12616971 3 16630237090982665836
12916754 54 18409731768083046297
13167823 11 18410853265399899523
13288520 33 18411138030843941341
13533116 47 18341612650438884920
13551218 46 18343022168506097583
13685833 64 18409169913118951626
13862211 1 18410853265410825807
13955234 65 18198622335984204688
14251752 14 17604138234527343693
14341114 176 18410296929701421292
14350574 20 18333169478989636132
15196674 1 18410575084663384225
15352361 1 18410575084663085409
17834072 33 18409450310196105484
17857418 61 18411135839978123107
18222031 100 17749105599849392260
19784866 240 18341338820393106728
200 152 18273213088425846177
20028762 73 18272366499059856214
20374829 77 18408602569867537043
20645477 56 10015865375397951977
20645477 70 18408886231109240958
21267235 1 18410581681732878051
221490 88 18263088867415253192
2297311 6 18202010901934664900
23402539 116 18342452660659380557
23522609 53 18122377693861285284
23559900 14 18337383941777641489
26918003 58 18202283611019995065
2871803 45 18186235134473155441
3004659 81 18187362142545052224
335352 9 18410572886705583541
34797466 226 17560808762416483220
351380 180 18410011048125376643
351380 3 18410570686616918599
4073 2 18041847323374722546
42 15 18412265047262945845
4214541 1 18410856534266059905
4325135 7 18334298686907539940
465052 167 18343868818593019542
5104073 3 18272088283799117728
542803 24 13262393358605559757
559249 180 18336824178504928099
57483677 66 18410008836190819419
59682541 35 18271234024469634984
59755656 215 18187360991952941231
7495541 125 17775000236448677208
77779 3 18410575088958422981
9709674 26 18262804089366007811

>  <PUBCHEM_SHAPE_MULTIPOLES>
354.37
14.25
1.9
0.58
0.02
0.16
0
6.45
0
0
0
0
-0.02
0

>  <PUBCHEM_SHAPE_SELFOVERLAP>
765.218

>  <PUBCHEM_SHAPE_VOLUME>
191.3

>  <PUBCHEM_COORDINATE_TYPE>
2
5
10

$$$$
