140073612
 OpenBabel01182520543D

 27 27  0  0  1  0  0  0  0  0999 V2000
   -1.8493    2.3255    0.8007 O   0  0  0  0  0  0  0  0  0  0  0  0
    0.8587    0.2322    0.8781 N   0  0  0  0  0  0  0  0  0  0  0  0
    2.1359    0.0325    0.3196 N   0  0  0  0  0  0  0  0  0  0  0  0
   -0.1995   -1.8474    0.4103 N   0  0  0  0  0  0  0  0  0  0  0  0
    0.7181    1.1240    1.9498 N   0  0  0  0  0  0  0  0  0  0  0  0
    2.1372    0.0329   -1.1110 N   0  0  0  0  0  0  0  0  0  0  0  0
    2.7645   -1.1459    0.8255 N   0  0  0  0  0  0  0  0  0  0  0  0
   -0.8815    2.3095   -1.2781 N   0  0  0  0  0  0  0  0  0  0  0  0
    3.3960    0.4442   -1.6355 N   0  0  0  0  0  0  0  0  0  0  0  0
   -0.2616   -0.4972    0.3761 C   0  0  0  0  0  0  0  0  0  0  0  0
   -1.3411    0.2171   -0.1178 C   0  0  0  0  0  0  0  0  0  0  0  0
   -2.4268   -0.5000   -0.6081 C   0  0  0  0  0  0  0  0  0  0  0  0
   -2.4001   -1.8901   -0.5897 C   0  0  0  0  0  0  0  0  0  0  0  0
   -1.3772    1.6729   -0.1452 C   0  0  0  0  0  0  0  0  0  0  0  0
   -1.2732   -2.5103   -0.0747 C   0  0  0  0  0  0  0  0  0  0  0  0
   -3.2983    0.0124   -1.0070 H   0  0  0  0  0  0  0  0  0  0  0  0
   -3.2348   -2.4698   -0.9667 H   0  0  0  0  0  0  0  0  0  0  0  0
   -1.2026   -3.5924   -0.0380 H   0  0  0  0  0  0  0  0  0  0  0  0
   -0.1769    0.9701    2.4121 H   0  0  0  0  0  0  0  0  0  0  0  0
    0.6958    2.0724    1.5786 H   0  0  0  0  0  0  0  0  0  0  0  0
    1.9198   -0.9038   -1.4480 H   0  0  0  0  0  0  0  0  0  0  0  0
    2.7578   -1.1096    1.8437 H   0  0  0  0  0  0  0  0  0  0  0  0
    2.2069   -1.9587    0.5676 H   0  0  0  0  0  0  0  0  0  0  0  0
   -0.4985    1.7923   -2.0631 H   0  0  0  0  0  0  0  0  0  0  0  0
   -0.8879    3.3213   -1.3530 H   0  0  0  0  0  0  0  0  0  0  0  0
    3.6136    1.3732   -1.2779 H   0  0  0  0  0  0  0  0  0  0  0  0
    4.1218   -0.1740   -1.2757 H   0  0  0  0  0  0  0  0  0  0  0  0
  1 14  2  0  0  0  0
  2  3  1  0  0  0  0
  2  5  1  0  0  0  0
  2 10  1  0  0  0  0
  3  6  1  0  0  0  0
  3  7  1  0  0  0  0
  4 10  1  0  0  0  0
  4 15  2  0  0  0  0
  5 19  1  0  0  0  0
  5 20  1  0  0  0  0
  6  9  1  0  0  0  0
  6 21  1  0  0  0  0
  7 22  1  0  0  0  0
  7 23  1  0  0  0  0
  8 14  1  0  0  0  0
  8 24  1  0  0  0  0
  8 25  1  0  0  0  0
  9 26  1  0  0  0  0
  9 27  1  0  0  0  0
 10 11  2  0  0  0  0
 11 12  1  0  0  0  0
 11 14  1  0  0  0  0
 12 13  2  0  0  0  0
 12 16  1  0  0  0  0
 13 15  1  0  0  0  0
 13 17  1  0  0  0  0
 15 18  1  0  0  0  0
M  END
>  <PUBCHEM_COMPOUND_CID>
140073612

>  <PUBCHEM_CONFORMER_RMSD>
0.6

>  <PUBCHEM_CONFORMER_DIVERSEORDER>
3
52
89
86
10
77
87
27
61
49
66
53
33
13
92
72
90
44
69
23
36
84
14
57
41
63
60
45
46
6
56
4
40
78
59
8
85
73
54
2
18
88
24
81
32
1
51
75
5
67
64
70
83
79
47
9
48
37
65
39
22
76
55
62
20
74
34
58
71
50
42
82
91
43
35
80
30
21
16
26
11
25
7
31
17
38
68
19
15
28
12
29

>  <PUBCHEM_MMFF94_PARTIAL_CHARGES>
27
1 -0.57
10 0.41
11 0.09
12 -0.15
13 -0.15
14 0.54
15 0.16
16 0.15
17 0.15
18 0.15
19 0.36
2 -0.12
20 0.36
21 0.36
22 0.36
23 0.36
24 0.37
25 0.37
26 0.36
27 0.36
3 0.01
4 -0.62
5 -0.71
6 -0.36
7 -0.72
8 -0.8
9 -0.72

>  <PUBCHEM_EFFECTIVE_ROTOR_COUNT>
4

>  <PUBCHEM_PHARMACOPHORE_FEATURES>
5
1 1 acceptor
1 4 acceptor
1 5 donor
1 8 donor
6 4 10 11 12 13 15 rings

>  <PUBCHEM_HEAVY_ATOM_COUNT>
15

>  <PUBCHEM_ATOM_DEF_STEREO_COUNT>
0

>  <PUBCHEM_ATOM_UDEF_STEREO_COUNT>
0

>  <PUBCHEM_BOND_DEF_STEREO_COUNT>
0

>  <PUBCHEM_BOND_UDEF_STEREO_COUNT>
0

>  <PUBCHEM_ISOTOPIC_ATOM_COUNT>
0

>  <PUBCHEM_COMPONENT_COUNT>
1

>  <PUBCHEM_CACTVS_TAUTO_COUNT>
-1

>  <PUBCHEM_CONFORMER_ID>
08595A8C00000003

>  <PUBCHEM_MMFF94_ENERGY>
57.3768

>  <PUBCHEM_FEATURE_SELFOVERLAP>
25.372

>  <PUBCHEM_SHAPE_FINGERPRINT>
1 1 17690274907064860787
11206711 2 18413384336903779735
12202030 40 17203336619386929606
12423570 1 17755579339276436408
12524768 44 17912632798630668659
12716758 59 18129661872721899290
13898156 1 17750213877257135792
14120999 15 17969785370108603693
14614273 12 18264189336572809733
14761567 1 17912340066671249785
15502708 8 18341628017689256788
16945 1 18272090495807306235
17134986 127 17902516986570209021
19837323 101 18190202146793582316
20645476 183 18191600644143544510
20711985 344 18342468061673761818
21040471 1 18195796375971906443
21524375 3 18045219332416706497
21930827 45 18201159849505770936
22802520 49 18342747337748620870
228727 97 17968664946263853750
22889148 1 18127385930881076877
23419403 2 17339230831957356889
23557571 272 18268988868247838184
23559900 14 17914602871030353010
27216 239 12325662374506998790
2748010 2 18052520347502505379
353137 74 18115030826130798014
430814 3 18119544132136707700
4369600 1 17828194725085954962
535629 181 17895768399005014268
53812653 8 18335427845934826519
576247 118 17915473893568718342
58734985 102 17762618786485036831
6992083 37 17680689438045989954
7364860 26 17261313017173925351
81228 2 18410569621723206515
84936 31 16769578362979805768

>  <PUBCHEM_SHAPE_MULTIPOLES>
262.98
3.87
2.57
1.32
2.76
0.55
0.01
-1.14
-1.36
-1.76
0.05
0.91
0.48
-0.29

>  <PUBCHEM_SHAPE_SELFOVERLAP>
536.487

>  <PUBCHEM_SHAPE_VOLUME>
152

>  <PUBCHEM_COORDINATE_TYPE>
2
5
10

$$$$
