14045773
 OpenBabel01182520543D

 20 20  0  0  0  0  0  0  0  0999 V2000
    0.7500   -2.2234   -0.1762 O   0  0  0  0  0  0  0  0  0  0  0  0
   -2.9867   -0.4979    0.4145 N   0  0  0  0  0  0  0  0  0  0  0  0
    1.6978   -0.2026   -0.7848 N   0  0  0  0  0  0  0  0  0  0  0  0
    3.5469    1.2060   -0.1571 N   0  0  0  0  0  0  0  0  0  0  0  0
    2.2381    0.2332    1.4380 N   0  0  0  0  0  0  0  0  0  0  0  0
   -0.6498   -0.3387   -0.1842 C   0  0  0  0  0  0  0  0  0  0  0  0
   -0.7974    1.0224   -0.4280 C   0  0  0  0  0  0  0  0  0  0  0  0
    0.6332   -0.9966   -0.3619 C   0  0  0  0  0  0  0  0  0  0  0  0
   -1.7652   -1.0477    0.2317 C   0  0  0  0  0  0  0  0  0  0  0  0
   -2.0384    1.6241   -0.2511 C   0  0  0  0  0  0  0  0  0  0  0  0
   -3.0917    0.8272    0.1677 C   0  0  0  0  0  0  0  0  0  0  0  0
    2.4633    0.3939    0.0914 C   0  0  0  0  0  0  0  0  0  0  0  0
    0.0251    1.6469   -0.7632 H   0  0  0  0  0  0  0  0  0  0  0  0
   -1.7239   -2.1123    0.4408 H   0  0  0  0  0  0  0  0  0  0  0  0
   -2.1778    2.6830   -0.4367 H   0  0  0  0  0  0  0  0  0  0  0  0
   -4.0801    1.2482    0.3200 H   0  0  0  0  0  0  0  0  0  0  0  0
    3.8388    1.4135   -1.1060 H   0  0  0  0  0  0  0  0  0  0  0  0
    4.0810    1.6228    0.5975 H   0  0  0  0  0  0  0  0  0  0  0  0
    1.4888   -0.3422    1.8052 H   0  0  0  0  0  0  0  0  0  0  0  0
    2.8292    0.6940    2.1217 H   0  0  0  0  0  0  0  0  0  0  0  0
  1  8  2  0  0  0  0
  2  9  1  0  0  0  0
  2 11  2  0  0  0  0
  3  8  1  0  0  0  0
  3 12  2  0  0  0  0
  4 12  1  0  0  0  0
  4 17  1  0  0  0  0
  4 18  1  0  0  0  0
  5 12  1  0  0  0  0
  5 19  1  0  0  0  0
  5 20  1  0  0  0  0
  6  7  1  0  0  0  0
  6  8  1  0  0  0  0
  6  9  2  0  0  0  0
  7 10  2  0  0  0  0
  7 13  1  0  0  0  0
  9 14  1  0  0  0  0
 10 11  1  0  0  0  0
 10 15  1  0  0  0  0
 11 16  1  0  0  0  0
M  END
>  <PUBCHEM_COMPOUND_CID>
14045773

>  <PUBCHEM_CONFORMER_RMSD>
0.6

>  <PUBCHEM_CONFORMER_DIVERSEORDER>
2
14
3
13
11
6
8
9
7
10
5
12
4
1

>  <PUBCHEM_MMFF94_PARTIAL_CHARGES>
20
1 -0.57
10 -0.15
11 0.16
12 0.55
13 0.15
14 0.15
15 0.15
16 0.15
17 0.4
18 0.4
19 0.4
2 -0.62
20 0.4
3 -0.66
4 -0.85
5 -0.85
6 0.09
7 -0.15
8 0.69
9 0.16

>  <PUBCHEM_EFFECTIVE_ROTOR_COUNT>
2

>  <PUBCHEM_PHARMACOPHORE_FEATURES>
6
1 1 acceptor
1 2 acceptor
1 3 donor
1 4 donor
1 5 donor
6 2 6 7 9 10 11 rings

>  <PUBCHEM_HEAVY_ATOM_COUNT>
12

>  <PUBCHEM_ATOM_DEF_STEREO_COUNT>
0

>  <PUBCHEM_ATOM_UDEF_STEREO_COUNT>
0

>  <PUBCHEM_BOND_DEF_STEREO_COUNT>
0

>  <PUBCHEM_BOND_UDEF_STEREO_COUNT>
0

>  <PUBCHEM_ISOTOPIC_ATOM_COUNT>
0

>  <PUBCHEM_COMPONENT_COUNT>
1

>  <PUBCHEM_CACTVS_TAUTO_COUNT>
3

>  <PUBCHEM_CONFORMER_ID>
00D6524D00000002

>  <PUBCHEM_MMFF94_ENERGY>
42.2428

>  <PUBCHEM_FEATURE_SELFOVERLAP>
30.577

>  <PUBCHEM_SHAPE_FINGERPRINT>
10608611 8 18337954467752601629
10857977 72 18408044030771721233
11031198 65 17489594458772273668
12932764 1 17632290168567258031
14325111 11 18411139134344464388
14390081 3 18271525308270836701
14648413 74 18050853208485508463
15219456 202 18340210682697520183
15775835 57 18273496784027041386
16945 1 18408329890967998501
19973954 147 18195530281378746493
20711985 344 11027171895418568186
20871998 184 18268157633083469383
21028194 46 18342175570438083944
21501502 16 18340764819710398363
230 275 18270954640229471000
23235685 24 18412823594753634404
23552423 10 17970359126426659767
2748010 2 18118694223081666431
369184 2 16805600361144356037
449060 62 18271248227240933097
5084963 1 18201447990461583502
6333449 129 18413669123716922535
7364860 26 18126004866888570150
81228 2 17481405493748156230

>  <PUBCHEM_SHAPE_MULTIPOLES>
221.16
4.94
1.66
0.83
1.04
0.36
-0.16
-1.84
-0.67
-0.1
0.15
0.33
-0.03
0.23

>  <PUBCHEM_SHAPE_SELFOVERLAP>
462.373

>  <PUBCHEM_SHAPE_VOLUME>
122.5

>  <PUBCHEM_COORDINATE_TYPE>
2
5
10

$$$$
