140875975
 OpenBabel01182520543D

 21 21  0  0  0  0  0  0  0  0999 V2000
    3.7538    0.2993    0.0104 O   0  0  0  0  0  0  0  0  0  0  0  0
   -1.9720    0.1445   -1.2022 N   0  0  0  0  0  0  0  0  0  0  0  0
   -4.0158    0.3630    0.0028 N   0  0  0  0  0  0  0  0  0  0  0  0
    2.0251    1.7935    0.1383 N   0  0  0  0  0  0  0  0  0  0  0  0
    0.0716   -0.3291   -0.0005 C   0  0  0  0  0  0  0  0  0  0  0  0
   -0.6281   -0.3373    1.2011 C   0  0  0  0  0  0  0  0  0  0  0  0
    1.5030   -0.5673   -0.0356 C   0  0  0  0  0  0  0  0  0  0  0  0
   -0.6403   -0.0855   -1.1639 C   0  0  0  0  0  0  0  0  0  0  0  0
   -1.9991   -0.1050    1.2023 C   0  0  0  0  0  0  0  0  0  0  0  0
   -2.6184    0.1286   -0.0150 C   0  0  0  0  0  0  0  0  0  0  0  0
    2.5457    0.5238    0.0353 C   0  0  0  0  0  0  0  0  0  0  0  0
    1.9742   -1.8286   -0.1730 C   0  0  0  0  0  0  0  0  0  0  0  0
   -0.1189   -0.5218    2.1438 H   0  0  0  0  0  0  0  0  0  0  0  0
   -0.1531   -0.0645   -2.1346 H   0  0  0  0  0  0  0  0  0  0  0  0
   -2.5516   -0.1091    2.1363 H   0  0  0  0  0  0  0  0  0  0  0  0
    3.0339   -2.0572   -0.2171 H   0  0  0  0  0  0  0  0  0  0  0  0
    1.2969   -2.6753   -0.2450 H   0  0  0  0  0  0  0  0  0  0  0  0
   -4.5642   -0.0498    0.7472 H   0  0  0  0  0  0  0  0  0  0  0  0
   -4.4653    0.5269   -0.8896 H   0  0  0  0  0  0  0  0  0  0  0  0
    1.0318    1.9973    0.1645 H   0  0  0  0  0  0  0  0  0  0  0  0
    2.6425    2.5970    0.1945 H   0  0  0  0  0  0  0  0  0  0  0  0
  1 11  2  0  0  0  0
  2  8  1  0  0  0  0
  2 10  2  0  0  0  0
  3 10  1  0  0  0  0
  3 18  1  0  0  0  0
  3 19  1  0  0  0  0
  4 11  1  0  0  0  0
  4 20  1  0  0  0  0
  4 21  1  0  0  0  0
  5  6  1  0  0  0  0
  5  7  1  0  0  0  0
  5  8  2  0  0  0  0
  6  9  2  0  0  0  0
  6 13  1  0  0  0  0
  7 11  1  0  0  0  0
  7 12  2  0  0  0  0
  8 14  1  0  0  0  0
  9 10  1  0  0  0  0
  9 15  1  0  0  0  0
 12 16  1  0  0  0  0
 12 17  1  0  0  0  0
M  END
>  <PUBCHEM_COMPOUND_CID>
140875975

>  <PUBCHEM_CONFORMER_RMSD>
0.6

>  <PUBCHEM_CONFORMER_DIVERSEORDER>
2
12
5
8
13
3
10
4
9
11
6
1
7

>  <PUBCHEM_MMFF94_PARTIAL_CHARGES>
21
1 -0.57
10 0.41
11 0.62
12 -0.3
13 0.15
14 0.15
15 0.15
16 0.15
17 0.15
18 0.4
19 0.4
2 -0.62
20 0.37
21 0.37
3 -0.9
4 -0.8
5 0.03
6 -0.15
7 -0.01
8 0.16
9 -0.15

>  <PUBCHEM_EFFECTIVE_ROTOR_COUNT>
2

>  <PUBCHEM_PHARMACOPHORE_FEATURES>
6
1 1 acceptor
1 12 hydrophobe
1 3 donor
1 4 donor
3 2 3 10 cation
6 2 5 6 8 9 10 rings

>  <PUBCHEM_HEAVY_ATOM_COUNT>
12

>  <PUBCHEM_ATOM_DEF_STEREO_COUNT>
0

>  <PUBCHEM_ATOM_UDEF_STEREO_COUNT>
0

>  <PUBCHEM_BOND_DEF_STEREO_COUNT>
0

>  <PUBCHEM_BOND_UDEF_STEREO_COUNT>
0

>  <PUBCHEM_ISOTOPIC_ATOM_COUNT>
0

>  <PUBCHEM_COMPONENT_COUNT>
1

>  <PUBCHEM_CACTVS_TAUTO_COUNT>
-1

>  <PUBCHEM_CONFORMER_ID>
086598C700000002

>  <PUBCHEM_MMFF94_ENERGY>
42.7417

>  <PUBCHEM_FEATURE_SELFOVERLAP>
30.446

>  <PUBCHEM_SHAPE_FINGERPRINT>
10857977 72 16732706073085670021
11031198 65 18408328787082314790
12326174 3 18337952277725618370
124424 183 17676477346528526440
12932764 1 17894628128201065059
13538477 17 17203316819334474311
13581323 91 15430032162664843104
14993402 34 17060339621582704113
15219456 202 17895471436534541614
15310529 11 18201717319423716371
15775835 57 17846498157783296768
16945 1 18341344352353013194
18175812 5 17895198847697356390
20201158 50 18186522094286639874
20645464 45 17676488349833883523
20645476 183 17560796649917222695
21119208 17 17489872635045315228
21293036 1 15697998548222667817
23402539 116 17168133568469483231
23552423 10 16772366608534955067
369184 2 18334576841204506907
5084963 1 17346041043549283395
528886 8 18343295989824264650
6333449 129 17749107833248099963
77492 1 17561082484164483818
8030462 33 17203891838029907139

>  <PUBCHEM_SHAPE_MULTIPOLES>
226.14
5.38
1.2
1.08
0.79
0.06
0.02
-1
0.02
-1.16
0
0.6
0.05
0.2

>  <PUBCHEM_SHAPE_SELFOVERLAP>
472.824

>  <PUBCHEM_SHAPE_VOLUME>
127.9

>  <PUBCHEM_COORDINATE_TYPE>
2
5
10

$$$$
