140829017
 OpenBabel01182520543D

 17 17  0  0  0  0  0  0  0  0999 V2000
   -2.3074   -1.5121   -0.0780 O   0  0  0  0  0  0  0  0  0  0  0  0
   -3.5074    0.9972    0.5383 O   0  0  0  0  0  0  0  0  0  0  0  0
    1.5957    1.2635   -0.1059 N   0  0  0  0  0  0  0  0  0  0  0  0
    3.7952    0.3726    0.1070 N   0  0  0  0  0  0  0  0  0  0  0  0
   -0.3015   -0.2350   -0.0806 C   0  0  0  0  0  0  0  0  0  0  0  0
    0.5508   -1.3233    0.0704 C   0  0  0  0  0  0  0  0  0  0  0  0
    1.9249   -1.1196    0.1334 C   0  0  0  0  0  0  0  0  0  0  0  0
    2.3927    0.1814    0.0412 C   0  0  0  0  0  0  0  0  0  0  0  0
    0.2659    1.0263   -0.1631 C   0  0  0  0  0  0  0  0  0  0  0  0
   -1.7410   -0.4150   -0.1495 C   0  0  0  0  0  0  0  0  0  0  0  0
   -2.6678    0.7639   -0.3132 C   0  0  0  0  0  0  0  0  0  0  0  0
    0.1639   -2.3362    0.1406 H   0  0  0  0  0  0  0  0  0  0  0  0
    2.5962   -1.9641    0.2506 H   0  0  0  0  0  0  0  0  0  0  0  0
   -0.3291    1.9264   -0.2781 H   0  0  0  0  0  0  0  0  0  0  0  0
    4.3494   -0.2996    0.6231 H   0  0  0  0  0  0  0  0  0  0  0  0
    4.1321    1.3255    0.0455 H   0  0  0  0  0  0  0  0  0  0  0  0
   -2.5289    1.3442   -1.2391 H   0  0  0  0  0  0  0  0  0  0  0  0
  1 10  2  0  0  0  0
  2 11  2  0  0  0  0
  3  8  2  0  0  0  0
  3  9  1  0  0  0  0
  4  8  1  0  0  0  0
  4 15  1  0  0  0  0
  4 16  1  0  0  0  0
  5  6  1  0  0  0  0
  5  9  2  0  0  0  0
  5 10  1  0  0  0  0
  6  7  2  0  0  0  0
  6 12  1  0  0  0  0
  7  8  1  0  0  0  0
  7 13  1  0  0  0  0
  9 14  1  0  0  0  0
 10 11  1  0  0  0  0
 11 17  1  0  0  0  0
M  END
>  <PUBCHEM_COMPOUND_CID>
140829017

>  <PUBCHEM_CONFORMER_RMSD>
0.4

>  <PUBCHEM_CONFORMER_DIVERSEORDER>
3
11
13
5
15
9
12
2
10
7
16
14
6
8
4
1

>  <PUBCHEM_MMFF94_PARTIAL_CHARGES>
17
1 -0.57
10 0.48
11 0.51
12 0.15
13 0.15
14 0.15
15 0.4
16 0.4
17 0.06
2 -0.57
3 -0.62
4 -0.9
5 0.09
6 -0.15
7 -0.15
8 0.41
9 0.16

>  <PUBCHEM_EFFECTIVE_ROTOR_COUNT>
2

>  <PUBCHEM_PHARMACOPHORE_FEATURES>
5
1 1 acceptor
1 2 acceptor
1 4 donor
3 3 4 8 cation
6 3 5 6 7 8 9 rings

>  <PUBCHEM_HEAVY_ATOM_COUNT>
11

>  <PUBCHEM_ATOM_DEF_STEREO_COUNT>
0

>  <PUBCHEM_ATOM_UDEF_STEREO_COUNT>
0

>  <PUBCHEM_BOND_DEF_STEREO_COUNT>
0

>  <PUBCHEM_BOND_UDEF_STEREO_COUNT>
0

>  <PUBCHEM_ISOTOPIC_ATOM_COUNT>
0

>  <PUBCHEM_COMPONENT_COUNT>
1

>  <PUBCHEM_CACTVS_TAUTO_COUNT>
-1

>  <PUBCHEM_CONFORMER_ID>
0864E15900000003

>  <PUBCHEM_MMFF94_ENERGY>
32.0963

>  <PUBCHEM_FEATURE_SELFOVERLAP>
25.374

>  <PUBCHEM_SHAPE_FINGERPRINT>
11062470 55 17418372480348982248
12932764 1 17531239539384046118
13380535 21 18409740538316314687
13380535 76 18410854352406816887
14144814 61 18410572851586053209
14325111 11 18410572928853305412
14897335 6 18412257320690464511
15775835 57 18410578379019195421
16945 1 18335695001363958892
17844478 74 17676777465868877517
21040471 1 18265331888168007702
23235685 24 18410568479108983152
23402539 116 17988633091643326453
23402655 69 18269540677414991757
23552423 10 18260829340533370191
2748010 2 18338233889666015748
5084963 1 18198624517420732995
528886 8 18411131429051809634
53812653 166 18341607127232170696
63268167 104 18411137991698580001

>  <PUBCHEM_SHAPE_MULTIPOLES>
204.67
5.16
1.44
0.62
0.36
0.22
0
-1.13
0.43
0.17
0
0.1
-0.02
-0.15

>  <PUBCHEM_SHAPE_SELFOVERLAP>
428.729

>  <PUBCHEM_SHAPE_VOLUME>
114.4

>  <PUBCHEM_COORDINATE_TYPE>
2
5
10

$$$$
