141113237
 OpenBabel01182520543D

 22 22  0  0  0  0  0  0  0  0999 V2000
   -3.1942    1.2074    0.4431 O   0  0  0  0  0  0  0  0  0  0  0  0
    0.9327    1.4908   -0.2317 N   0  0  0  0  0  0  0  0  0  0  0  0
    3.0349    0.3772   -0.0995 N   0  0  0  0  0  0  0  0  0  0  0  0
   -3.1821   -1.0030   -0.2616 N   0  0  0  0  0  0  0  0  0  0  0  0
   -4.5598   -1.1018   -0.2233 N   0  0  0  0  0  0  0  0  0  0  0  0
    3.7475   -0.7455    0.0710 N   0  0  0  0  0  0  0  0  0  0  0  0
   -1.1053    0.2197    0.0443 C   0  0  0  0  0  0  0  0  0  0  0  0
   -0.3644   -0.9432    0.2232 C   0  0  0  0  0  0  0  0  0  0  0  0
    1.6191    0.3398   -0.0532 C   0  0  0  0  0  0  0  0  0  0  0  0
    1.0243   -0.8906    0.1751 C   0  0  0  0  0  0  0  0  0  0  0  0
   -0.4151    1.4004   -0.1781 C   0  0  0  0  0  0  0  0  0  0  0  0
   -2.5568    0.1975    0.0891 C   0  0  0  0  0  0  0  0  0  0  0  0
    5.0193   -0.5485    0.0016 C   0  0  0  0  0  0  0  0  0  0  0  0
   -0.8318   -1.9022    0.4266 H   0  0  0  0  0  0  0  0  0  0  0  0
    1.5812   -1.8095    0.3231 H   0  0  0  0  0  0  0  0  0  0  0  0
   -0.9318    2.3434   -0.3296 H   0  0  0  0  0  0  0  0  0  0  0  0
    3.4714    1.2765   -0.2662 H   0  0  0  0  0  0  0  0  0  0  0  0
   -2.6722   -1.8169   -0.5892 H   0  0  0  0  0  0  0  0  0  0  0  0
   -4.8630   -1.3662   -1.1597 H   0  0  0  0  0  0  0  0  0  0  0  0
   -4.7821   -1.8937    0.3786 H   0  0  0  0  0  0  0  0  0  0  0  0
    5.7071   -1.3994    0.1266 H   0  0  0  0  0  0  0  0  0  0  0  0
    5.4819    0.4376   -0.1790 H   0  0  0  0  0  0  0  0  0  0  0  0
  1 12  2  0  0  0  0
  2  9  2  0  0  0  0
  2 11  1  0  0  0  0
  3  6  1  0  0  0  0
  3  9  1  0  0  0  0
  3 17  1  0  0  0  0
  4  5  1  0  0  0  0
  4 12  1  0  0  0  0
  4 18  1  0  0  0  0
  5 19  1  0  0  0  0
  5 20  1  0  0  0  0
  6 13  2  0  0  0  0
  7  8  1  0  0  0  0
  7 11  2  0  0  0  0
  7 12  1  0  0  0  0
  8 10  2  0  0  0  0
  8 14  1  0  0  0  0
  9 10  1  0  0  0  0
 10 15  1  0  0  0  0
 11 16  1  0  0  0  0
 13 21  1  0  0  0  0
 13 22  1  0  0  0  0
M  END
>  <PUBCHEM_COMPOUND_CID>
141113237

>  <PUBCHEM_CONFORMER_RMSD>
0.6

>  <PUBCHEM_CONFORMER_DIVERSEORDER>
2
12
13
6
16
3
10
15
11
9
17
1
8
5
14
7
4

>  <PUBCHEM_MMFF94_PARTIAL_CHARGES>
22
1 -0.57
10 -0.15
11 0.16
12 0.54
13 0.33
14 0.15
15 0.15
16 0.15
17 0.4
18 0.37
19 0.36
2 -0.62
20 0.36
21 0.06
22 0.06
3 -0.46
4 -0.42
5 -0.73
6 -0.49
7 0.09
8 -0.15
9 0.41

>  <PUBCHEM_EFFECTIVE_ROTOR_COUNT>
4

>  <PUBCHEM_PHARMACOPHORE_FEATURES>
7
1 1 acceptor
1 3 donor
1 4 donor
1 5 donor
1 6 acceptor
3 2 3 9 cation
6 2 7 8 9 10 11 rings

>  <PUBCHEM_HEAVY_ATOM_COUNT>
13

>  <PUBCHEM_ATOM_DEF_STEREO_COUNT>
0

>  <PUBCHEM_ATOM_UDEF_STEREO_COUNT>
0

>  <PUBCHEM_BOND_DEF_STEREO_COUNT>
0

>  <PUBCHEM_BOND_UDEF_STEREO_COUNT>
0

>  <PUBCHEM_ISOTOPIC_ATOM_COUNT>
0

>  <PUBCHEM_COMPONENT_COUNT>
1

>  <PUBCHEM_CACTVS_TAUTO_COUNT>
-1

>  <PUBCHEM_CONFORMER_ID>
0869379500000002

>  <PUBCHEM_MMFF94_ENERGY>
37.8957

>  <PUBCHEM_FEATURE_SELFOVERLAP>
37.024

>  <PUBCHEM_SHAPE_FINGERPRINT>
11062470 55 8142086463761331442
11401426 45 18408880720138763900
11543360 7 15213310771525347682
11806522 49 18410853308571320031
12032990 46 18409451401070260770
13288520 33 18413672400450097150
13690532 89 18408040727672975118
13760787 5 17895204306669420036
14325111 11 18411139147092372056
14911166 2 18040996262699051190
14993402 34 18187081771453999430
16945 1 17385722504031709728
19026448 4 16774083934044338996
200 152 18271801346214511711
21267235 1 18410301319179493075
21501925 9 18411695521540436592
22485316 2 18410571747869154810
23402539 116 18410849932800644716
23402655 69 18192414296297886365
23463225 33 18335139756998630374
8809292 202 18042409195750691091

>  <PUBCHEM_SHAPE_MULTIPOLES>
236.76
8.04
1.36
0.61
3.23
0.24
0.01
-2.72
-0.23
-0.54
-0.03
-0.05
0.01
-0.29

>  <PUBCHEM_SHAPE_SELFOVERLAP>
488.752

>  <PUBCHEM_SHAPE_VOLUME>
134.1

>  <PUBCHEM_COORDINATE_TYPE>
2
5
10

$$$$
