141212359
 OpenBabel01182520543D

 24 25  0  0  0  0  0  0  0  0999 V2000
   -0.1699   -2.4833    0.9443 O   0  0  0  0  0  0  0  0  0  0  0  0
    1.0689    0.5646    0.0262 N   0  0  0  0  0  0  0  0  0  0  0  0
    1.6809   -0.4895    0.5704 N   0  0  0  0  0  0  0  0  0  0  0  0
   -0.9052    1.8756    0.0978 N   0  0  0  0  0  0  0  0  0  0  0  0
   -0.1663   -2.3672   -1.3459 N   0  0  0  0  0  0  0  0  0  0  0  0
    1.9040    1.5816   -0.5253 C   0  0  0  0  0  0  0  0  0  0  0  0
    3.2910    1.0252   -0.2624 C   0  0  0  0  0  0  0  0  0  0  0  0
   -0.3464    0.6462    0.0339 C   0  0  0  0  0  0  0  0  0  0  0  0
    2.9403   -0.2527    0.4191 C   0  0  0  0  0  0  0  0  0  0  0  0
   -1.0713   -0.5334   -0.0215 C   0  0  0  0  0  0  0  0  0  0  0  0
   -2.4590   -0.4456   -0.0108 C   0  0  0  0  0  0  0  0  0  0  0  0
   -0.4402   -1.8444   -0.0865 C   0  0  0  0  0  0  0  0  0  0  0  0
   -3.0706    0.8015    0.0542 C   0  0  0  0  0  0  0  0  0  0  0  0
   -2.2563    1.9213    0.1064 C   0  0  0  0  0  0  0  0  0  0  0  0
    1.7735    2.5467   -0.0233 H   0  0  0  0  0  0  0  0  0  0  0  0
    1.7308    1.7182   -1.5983 H   0  0  0  0  0  0  0  0  0  0  0  0
    3.8863    1.6569    0.4015 H   0  0  0  0  0  0  0  0  0  0  0  0
    3.8509    0.8235   -1.1789 H   0  0  0  0  0  0  0  0  0  0  0  0
    3.7292   -0.9362    0.7631 H   0  0  0  0  0  0  0  0  0  0  0  0
   -3.0740   -1.3407   -0.0518 H   0  0  0  0  0  0  0  0  0  0  0  0
   -4.1506    0.8940    0.0639 H   0  0  0  0  0  0  0  0  0  0  0  0
   -2.6840    2.9171    0.1580 H   0  0  0  0  0  0  0  0  0  0  0  0
   -0.3862   -1.8625   -2.1987 H   0  0  0  0  0  0  0  0  0  0  0  0
    0.2671   -3.2787   -1.4495 H   0  0  0  0  0  0  0  0  0  0  0  0
  1 12  2  0  0  0  0
  2  3  1  0  0  0  0
  2  6  1  0  0  0  0
  2  8  1  0  0  0  0
  3  9  2  0  0  0  0
  4  8  1  0  0  0  0
  4 14  2  0  0  0  0
  5 12  1  0  0  0  0
  5 23  1  0  0  0  0
  5 24  1  0  0  0  0
  6  7  1  0  0  0  0
  6 15  1  0  0  0  0
  6 16  1  0  0  0  0
  7  9  1  0  0  0  0
  7 17  1  0  0  0  0
  7 18  1  0  0  0  0
  8 10  2  0  0  0  0
  9 19  1  0  0  0  0
 10 11  1  0  0  0  0
 10 12  1  0  0  0  0
 11 13  2  0  0  0  0
 11 20  1  0  0  0  0
 13 14  1  0  0  0  0
 13 21  1  0  0  0  0
 14 22  1  0  0  0  0
M  END
>  <PUBCHEM_COMPOUND_CID>
141212359

>  <PUBCHEM_CONFORMER_RMSD>
0.6

>  <PUBCHEM_CONFORMER_DIVERSEORDER>
1
12
2
6
9
7
11
10
3
4
8
5

>  <PUBCHEM_MMFF94_PARTIAL_CHARGES>
20
1 -0.57
10 0.09
11 -0.15
12 0.54
13 -0.15
14 0.16
19 0.06
2 -0.43
20 0.15
21 0.15
22 0.15
23 0.37
24 0.37
3 -0.49
4 -0.62
5 -0.8
6 0.37
7 0.06
8 0.41
9 0.33

>  <PUBCHEM_EFFECTIVE_ROTOR_COUNT>
2.6

>  <PUBCHEM_PHARMACOPHORE_FEATURES>
6
1 1 acceptor
1 3 acceptor
1 4 acceptor
1 5 donor
5 2 3 6 7 9 rings
6 4 8 10 11 13 14 rings

>  <PUBCHEM_HEAVY_ATOM_COUNT>
14

>  <PUBCHEM_ATOM_DEF_STEREO_COUNT>
0

>  <PUBCHEM_ATOM_UDEF_STEREO_COUNT>
0

>  <PUBCHEM_BOND_DEF_STEREO_COUNT>
0

>  <PUBCHEM_BOND_UDEF_STEREO_COUNT>
0

>  <PUBCHEM_ISOTOPIC_ATOM_COUNT>
0

>  <PUBCHEM_COMPONENT_COUNT>
1

>  <PUBCHEM_CACTVS_TAUTO_COUNT>
-1

>  <PUBCHEM_CONFORMER_ID>
086ABAC700000001

>  <PUBCHEM_MMFF94_ENERGY>
57.851

>  <PUBCHEM_FEATURE_SELFOVERLAP>
30.452

>  <PUBCHEM_SHAPE_FINGERPRINT>
1 1 18268426828405393174
100427 49 17186442889176389675
10465860 228 17839192805160701081
10967382 1 18409448046648107073
12202030 40 16341203049493506548
12423570 1 17335593342702755427
12696612 119 17976538304222483691
13380535 76 18411136900824398303
13538477 17 18115581690093805554
14325111 11 18409730638269062768
15076042 46 18409171047021868720
15309172 13 18410583868040257937
15490181 8 18339093579062982793
15669948 3 18267865167422234532
15775835 57 18411141324588154177
15906896 17 18339080518073132727
16945 1 18334579087250785224
193761 8 17472979502088807728
20510252 161 18272656761438946961
20645476 183 17823153352708863262
20871998 184 18199195176888111879
21524375 3 18411697660386560283
2334 1 18410293601186487720
23402539 116 18271796973415675637
23419403 2 15817560254138771496
23463225 33 18190456061118122554
23552423 10 18121218684461988081
23559900 14 18273217522019233016
2748010 2 18338519620976552148
43471831 8 18335417928834670067
528862 383 18119522137846315027
7364860 26 17912082737910811551
81228 2 18051402169746102307
81539 233 18263081016204434629
84936 31 15980575038111487870

>  <PUBCHEM_SHAPE_MULTIPOLES>
262.32
4.41
2.46
0.8
1.55
1.02
0.1
-2.02
-0.12
-0.61
0.19
0.09
0.35
-0.31

>  <PUBCHEM_SHAPE_SELFOVERLAP>
565.305

>  <PUBCHEM_SHAPE_VOLUME>
144.1

>  <PUBCHEM_COORDINATE_TYPE>
2
5
10

$$$$
