141219392
 OpenBabel01182520543D

 29 30  0  0  0  0  0  0  0  0999 V2000
   -4.5959    1.5809   -0.0020 O   0  0  0  0  0  0  0  0  0  0  0  0
   -0.1132   -2.4816    0.5500 O   0  0  0  0  0  0  0  0  0  0  0  0
   -1.2470   -0.6451   -0.3470 N   0  0  0  0  0  0  0  0  0  0  0  0
    3.2017   -0.0741   -1.0814 N   0  0  0  0  0  0  0  0  0  0  0  0
    4.8283    1.3111   -0.0268 N   0  0  0  0  0  0  0  0  0  0  0  0
   -1.2637    0.7286   -0.8665 C   0  0  0  0  0  0  0  0  0  0  0  0
   -2.5529   -1.3042   -0.3498 C   0  0  0  0  0  0  0  0  0  0  0  0
   -2.1947    1.6014   -0.0357 C   0  0  0  0  0  0  0  0  0  0  0  0
   -3.5497   -0.5226    0.4963 C   0  0  0  0  0  0  0  0  0  0  0  0
   -3.5512    0.9396    0.0982 C   0  0  0  0  0  0  0  0  0  0  0  0
   -0.1229   -1.3309    0.1157 C   0  0  0  0  0  0  0  0  0  0  0  0
    1.1680   -0.6313    0.1014 C   0  0  0  0  0  0  0  0  0  0  0  0
    1.5916    0.1144    1.1960 C   0  0  0  0  0  0  0  0  0  0  0  0
    2.0025   -0.6935   -1.0030 C   0  0  0  0  0  0  0  0  0  0  0  0
    2.8193    0.7660    1.1530 C   0  0  0  0  0  0  0  0  0  0  0  0
    3.5799    0.6413    0.0016 C   0  0  0  0  0  0  0  0  0  0  0  0
   -1.6147    0.6744   -1.9042 H   0  0  0  0  0  0  0  0  0  0  0  0
   -0.2659    1.1714   -0.8849 H   0  0  0  0  0  0  0  0  0  0  0  0
   -2.4737   -2.3308    0.0213 H   0  0  0  0  0  0  0  0  0  0  0  0
   -2.8895   -1.3542   -1.3923 H   0  0  0  0  0  0  0  0  0  0  0  0
   -2.3139    2.5811   -0.5090 H   0  0  0  0  0  0  0  0  0  0  0  0
   -1.7945    1.7481    0.9735 H   0  0  0  0  0  0  0  0  0  0  0  0
   -3.2839   -0.5762    1.5579 H   0  0  0  0  0  0  0  0  0  0  0  0
   -4.5556   -0.9351    0.3690 H   0  0  0  0  0  0  0  0  0  0  0  0
    0.9723    0.1942    2.0853 H   0  0  0  0  0  0  0  0  0  0  0  0
    1.7258   -1.2595   -1.8873 H   0  0  0  0  0  0  0  0  0  0  0  0
    3.1563    1.3495    2.0036 H   0  0  0  0  0  0  0  0  0  0  0  0
    4.9382    2.1492    0.5307 H   0  0  0  0  0  0  0  0  0  0  0  0
    5.3779    1.2223   -0.8725 H   0  0  0  0  0  0  0  0  0  0  0  0
  1 10  2  0  0  0  0
  2 11  2  0  0  0  0
  3  6  1  0  0  0  0
  3  7  1  0  0  0  0
  3 11  1  0  0  0  0
  4 14  1  0  0  0  0
  4 16  2  0  0  0  0
  5 16  1  0  0  0  0
  5 28  1  0  0  0  0
  5 29  1  0  0  0  0
  6  8  1  0  0  0  0
  6 17  1  0  0  0  0
  6 18  1  0  0  0  0
  7  9  1  0  0  0  0
  7 19  1  0  0  0  0
  7 20  1  0  0  0  0
  8 10  1  0  0  0  0
  8 21  1  0  0  0  0
  8 22  1  0  0  0  0
  9 10  1  0  0  0  0
  9 23  1  0  0  0  0
  9 24  1  0  0  0  0
 11 12  1  0  0  0  0
 12 13  1  0  0  0  0
 12 14  2  0  0  0  0
 13 15  2  0  0  0  0
 13 25  1  0  0  0  0
 14 26  1  0  0  0  0
 15 16  1  0  0  0  0
 15 27  1  0  0  0  0
M  END
>  <PUBCHEM_COMPOUND_CID>
141219392

>  <PUBCHEM_CONFORMER_RMSD>
0.6

>  <PUBCHEM_CONFORMER_DIVERSEORDER>
1
6
3
5
7
2
4
11
9
8
10

>  <PUBCHEM_MMFF94_PARTIAL_CHARGES>
21
1 -0.57
10 0.45
11 0.54
12 0.09
13 -0.15
14 0.16
15 -0.15
16 0.41
2 -0.57
25 0.15
26 0.15
27 0.15
28 0.4
29 0.4
3 -0.66
4 -0.62
5 -0.9
6 0.3
7 0.3
8 0.06
9 0.06

>  <PUBCHEM_EFFECTIVE_ROTOR_COUNT>
3

>  <PUBCHEM_PHARMACOPHORE_FEATURES>
6
1 1 acceptor
1 2 acceptor
1 5 donor
3 4 5 16 cation
6 3 6 7 8 9 10 rings
6 4 12 13 14 15 16 rings

>  <PUBCHEM_HEAVY_ATOM_COUNT>
16

>  <PUBCHEM_ATOM_DEF_STEREO_COUNT>
0

>  <PUBCHEM_ATOM_UDEF_STEREO_COUNT>
0

>  <PUBCHEM_BOND_DEF_STEREO_COUNT>
0

>  <PUBCHEM_BOND_UDEF_STEREO_COUNT>
0

>  <PUBCHEM_ISOTOPIC_ATOM_COUNT>
0

>  <PUBCHEM_COMPONENT_COUNT>
1

>  <PUBCHEM_CACTVS_TAUTO_COUNT>
-1

>  <PUBCHEM_CONFORMER_ID>
086AD64000000001

>  <PUBCHEM_MMFF94_ENERGY>
46.3531

>  <PUBCHEM_FEATURE_SELFOVERLAP>
30.446

>  <PUBCHEM_SHAPE_FINGERPRINT>
10498660 4 18410289186234518093
10608611 8 18201996672438793040
11031198 65 17704075096796245086
11046707 91 9439412332339259220
11132069 177 18114186319738822669
11471102 22 14201390586798986066
11543360 7 16415184694485732941
12251169 10 13984664763110595688
12346645 44 18408321068878604971
13214271 11 18334858337977800975
13764800 53 18335989705219684603
14252887 29 14779535782616397968
14943859 89 18341895190467076162
15219456 202 18131354111332419990
15775835 57 18335136475211008801
16945 1 18336821012919170383
18186145 218 17917439717417292242
200 152 14404913500609779746
20510252 161 18412548729847403233
20645477 56 18337673113578118636
20645477 70 16916802768407781374
20671657 1 18122062005417155251
21501925 9 8430305831737861679
21524375 3 18411133602242308538
22926399 65 18341613741502905424
23402539 116 18340760520595717924
23402655 69 17561366166643666872
23403322 49 9295297139763071512
23557571 272 18129948999733166415
23559900 14 18272092678394484822
25 1 17989490705922002522
276578 36 18113335284790926618
305870 269 18261667082573868250
4028521 119 18201719539890380849
4990 188 17775286036599743181
5104073 3 18261962825964277603
633830 44 18341892952741610103
6442390 28 18410866472836421699
7364860 26 18124311606033719463
74978 22 12966832572617045967
77492 1 17240479255896817038
81228 2 17975684309947551819

>  <PUBCHEM_SHAPE_MULTIPOLES>
302.59
7.97
1.77
1
0.64
0.4
-0.04
-4.18
0.02
-0.9
-0.13
0.56
0.01
0.31

>  <PUBCHEM_SHAPE_SELFOVERLAP>
637.913

>  <PUBCHEM_SHAPE_VOLUME>
168.3

>  <PUBCHEM_COORDINATE_TYPE>
2
5
10

$$$$
