141362462
 OpenBabel01182520543D

 23 24  0  0  0  0  0  0  0  0999 V2000
   -0.2386   -2.5055    0.9440 O   0  0  0  0  0  0  0  0  0  0  0  0
    1.0462    0.5469    0.0409 N   0  0  0  0  0  0  0  0  0  0  0  0
   -0.8720    1.8730    0.1077 N   0  0  0  0  0  0  0  0  0  0  0  0
   -0.2236   -2.3817   -1.3457 N   0  0  0  0  0  0  0  0  0  0  0  0
   -0.3398    0.6319    0.0428 C   0  0  0  0  0  0  0  0  0  0  0  0
   -1.0899   -0.5315   -0.0182 C   0  0  0  0  0  0  0  0  0  0  0  0
    1.7991   -0.1092    0.9795 C   0  0  0  0  0  0  0  0  0  0  0  0
    1.8710    1.1087   -0.8985 C   0  0  0  0  0  0  0  0  0  0  0  0
   -2.4754   -0.4136   -0.0123 C   0  0  0  0  0  0  0  0  0  0  0  0
    3.1245    0.0367    0.6345 C   0  0  0  0  0  0  0  0  0  0  0  0
    3.1701    0.8070   -0.5538 C   0  0  0  0  0  0  0  0  0  0  0  0
   -3.0601    0.8463    0.0533 C   0  0  0  0  0  0  0  0  0  0  0  0
   -0.4896   -1.8573   -0.0855 C   0  0  0  0  0  0  0  0  0  0  0  0
   -2.2218    1.9481    0.1113 C   0  0  0  0  0  0  0  0  0  0  0  0
    1.3506   -0.6012    1.8326 H   0  0  0  0  0  0  0  0  0  0  0  0
    1.4759    1.6734   -1.7331 H   0  0  0  0  0  0  0  0  0  0  0  0
   -3.1097   -1.2950   -0.0580 H   0  0  0  0  0  0  0  0  0  0  0  0
    3.9658   -0.3617    1.1839 H   0  0  0  0  0  0  0  0  0  0  0  0
    4.0529    1.1106   -1.0986 H   0  0  0  0  0  0  0  0  0  0  0  0
   -4.1378    0.9623    0.0592 H   0  0  0  0  0  0  0  0  0  0  0  0
   -2.6280    2.9528    0.1638 H   0  0  0  0  0  0  0  0  0  0  0  0
   -0.4275   -1.8681   -2.1972 H   0  0  0  0  0  0  0  0  0  0  0  0
    0.1887   -3.3025   -1.4513 H   0  0  0  0  0  0  0  0  0  0  0  0
  1 13  2  0  0  0  0
  2  5  1  0  0  0  0
  2  7  1  0  0  0  0
  2  8  1  0  0  0  0
  3  5  1  0  0  0  0
  3 14  2  0  0  0  0
  4 13  1  0  0  0  0
  4 22  1  0  0  0  0
  4 23  1  0  0  0  0
  5  6  2  0  0  0  0
  6  9  1  0  0  0  0
  6 13  1  0  0  0  0
  7 10  2  0  0  0  0
  7 15  1  0  0  0  0
  8 11  2  0  0  0  0
  8 16  1  0  0  0  0
  9 12  2  0  0  0  0
  9 17  1  0  0  0  0
 10 11  1  0  0  0  0
 10 18  1  0  0  0  0
 11 19  1  0  0  0  0
 12 14  1  0  0  0  0
 12 20  1  0  0  0  0
 14 21  1  0  0  0  0
M  END
>  <PUBCHEM_COMPOUND_CID>
141362462

>  <PUBCHEM_CONFORMER_RMSD>
0.6

>  <PUBCHEM_CONFORMER_DIVERSEORDER>
1
2
3
4
5

>  <PUBCHEM_MMFF94_PARTIAL_CHARGES>
23
1 -0.57
10 -0.15
11 -0.15
12 -0.15
13 0.54
14 0.16
15 0.15
16 0.15
17 0.15
18 0.15
19 0.15
2 0.33
20 0.15
21 0.15
22 0.37
23 0.37
3 -0.62
4 -0.8
5 0.29
6 0.09
7 -0.3
8 -0.3
9 -0.15

>  <PUBCHEM_EFFECTIVE_ROTOR_COUNT>
2

>  <PUBCHEM_PHARMACOPHORE_FEATURES>
6
1 1 acceptor
1 2 cation
1 3 acceptor
1 4 donor
5 2 7 8 10 11 rings
6 3 5 6 9 12 14 rings

>  <PUBCHEM_HEAVY_ATOM_COUNT>
14

>  <PUBCHEM_ATOM_DEF_STEREO_COUNT>
0

>  <PUBCHEM_ATOM_UDEF_STEREO_COUNT>
0

>  <PUBCHEM_BOND_DEF_STEREO_COUNT>
0

>  <PUBCHEM_BOND_UDEF_STEREO_COUNT>
0

>  <PUBCHEM_ISOTOPIC_ATOM_COUNT>
0

>  <PUBCHEM_COMPONENT_COUNT>
1

>  <PUBCHEM_CACTVS_TAUTO_COUNT>
-1

>  <PUBCHEM_CONFORMER_ID>
086D051E00000001

>  <PUBCHEM_MMFF94_ENERGY>
53.2593

>  <PUBCHEM_FEATURE_SELFOVERLAP>
30.446

>  <PUBCHEM_SHAPE_FINGERPRINT>
1 1 18197212542637846174
10465860 228 17836937702501379857
12202030 40 16699802156953700676
12423570 1 17901092023911518913
13380535 76 18337669698984042897
13538477 17 18114740567940750642
14993402 34 18260547835470984540
15076042 46 18335423495074927042
15279307 12 18041279958706584594
15309172 13 18409739438852088449
15490181 8 18337404729197444097
15669948 3 18267303308364113188
15775835 57 18341331115158506921
15906896 17 18337674234127096779
16945 1 18337392741769563249
193761 8 17617940231865426817
20510252 161 18272656761454764713
20645476 183 17823150049831578750
20871998 184 18198912593804557575
21524375 3 18411415077376865529
23402539 116 18271794757165143077
23419403 2 11372883360522241141
23463225 33 18189330169748428066
23552423 10 18120656821151110433
23559900 14 18201720661694477088
2748010 2 18267027154471989709
276578 36 18198913513101645409
430814 3 18186516592401950282
43471831 8 18335698295752029379
528862 383 18045211652983415947
53812653 8 18335707160379638889
5706482 22 18340758269758593643
7364860 26 17768529391713220863
77492 1 17967811665243169104
81228 2 18124023800364281379
81539 233 18262235491810134629

>  <PUBCHEM_SHAPE_MULTIPOLES>
267.3
4.44
2.31
0.94
1.38
1.22
0.08
-1.92
-0.14
-0.99
0.2
0.38
0.29
-0.35

>  <PUBCHEM_SHAPE_SELFOVERLAP>
583.89

>  <PUBCHEM_SHAPE_VOLUME>
145

>  <PUBCHEM_COORDINATE_TYPE>
2
5
10

$$$$
