141318752
 OpenBabel01182520543D

 24 24  0  0  0  0  0  0  0  0999 V2000
   -2.1924    1.4461   -0.0888 S   0  0  0  0  0  0  0  0  0  0  0  0
    0.9490    1.1370    1.6562 O   0  0  0  0  0  0  0  0  0  0  0  0
   -2.7430    2.7157   -0.5401 O   0  0  0  0  0  0  0  0  0  0  0  0
   -2.6516    0.9549    1.2022 O   0  0  0  0  0  0  0  0  0  0  0  0
    2.2505    0.9828   -0.2794 N   0  0  0  0  0  0  0  0  0  0  0  0
   -1.3900   -1.7410   -0.7675 N   0  0  0  0  0  0  0  0  0  0  0  0
   -1.1980    0.6347   -0.9610 N   0  0  0  0  0  0  0  0  0  0  0  0
    0.4933   -0.6511    0.2861 C   0  0  0  0  0  0  0  0  0  0  0  0
    1.2504    0.5693    0.6069 C   0  0  0  0  0  0  0  0  0  0  0  0
   -0.6743   -0.6362   -0.4596 C   0  0  0  0  0  0  0  0  0  0  0  0
    0.9566   -1.8791    0.7454 C   0  0  0  0  0  0  0  0  0  0  0  0
    2.5503    0.2531   -1.5094 C   0  0  0  0  0  0  0  0  0  0  0  0
    3.0603    2.1683   -0.0362 C   0  0  0  0  0  0  0  0  0  0  0  0
    0.2478   -3.0382    0.4491 C   0  0  0  0  0  0  0  0  0  0  0  0
   -0.9089   -2.9164   -0.3039 C   0  0  0  0  0  0  0  0  0  0  0  0
    1.8675   -1.9452    1.3344 H   0  0  0  0  0  0  0  0  0  0  0  0
    2.4105    0.9336   -2.3551 H   0  0  0  0  0  0  0  0  0  0  0  0
    1.9318   -0.6284   -1.6735 H   0  0  0  0  0  0  0  0  0  0  0  0
    3.5977   -0.0625   -1.4749 H   0  0  0  0  0  0  0  0  0  0  0  0
    4.1119    1.8736    0.0204 H   0  0  0  0  0  0  0  0  0  0  0  0
    2.7729    2.6528    0.9005 H   0  0  0  0  0  0  0  0  0  0  0  0
    2.9165    2.8709   -0.8619 H   0  0  0  0  0  0  0  0  0  0  0  0
    0.5900   -4.0062    0.7965 H   0  0  0  0  0  0  0  0  0  0  0  0
   -1.4980   -3.7902   -0.5622 H   0  0  0  0  0  0  0  0  0  0  0  0
  1  3  2  0  0  0  0
  1  4  2  0  0  0  0
  1  7  2  0  0  0  0
  2  9  2  0  0  0  0
  5  9  1  0  0  0  0
  5 12  1  0  0  0  0
  5 13  1  0  0  0  0
  6 10  1  0  0  0  0
  6 15  2  0  0  0  0
  7 10  1  0  0  0  0
  8  9  1  0  0  0  0
  8 10  2  0  0  0  0
  8 11  1  0  0  0  0
 11 14  2  0  0  0  0
 11 16  1  0  0  0  0
 12 17  1  0  0  0  0
 12 18  1  0  0  0  0
 12 19  1  0  0  0  0
 13 20  1  0  0  0  0
 13 21  1  0  0  0  0
 13 22  1  0  0  0  0
 14 15  1  0  0  0  0
 14 23  1  0  0  0  0
 15 24  1  0  0  0  0
M  END
>  <PUBCHEM_COMPOUND_CID>
141318752

>  <PUBCHEM_CONFORMER_RMSD>
0.6

>  <PUBCHEM_CONFORMER_DIVERSEORDER>
1
5
12
7
6
8
11
9
14
2
10
13
4
3

>  <PUBCHEM_MMFF94_PARTIAL_CHARGES>
18
1 1.89
10 0.71
11 -0.15
12 0.3
13 0.3
14 -0.15
15 0.16
16 0.15
2 -0.57
23 0.15
24 0.15
3 -0.65
4 -0.65
5 -0.66
6 -0.62
7 -0.99
8 0.09
9 0.54

>  <PUBCHEM_EFFECTIVE_ROTOR_COUNT>
3

>  <PUBCHEM_PHARMACOPHORE_FEATURES>
3
1 2 acceptor
1 6 acceptor
6 6 8 10 11 14 15 rings

>  <PUBCHEM_HEAVY_ATOM_COUNT>
15

>  <PUBCHEM_ATOM_DEF_STEREO_COUNT>
0

>  <PUBCHEM_ATOM_UDEF_STEREO_COUNT>
0

>  <PUBCHEM_BOND_DEF_STEREO_COUNT>
0

>  <PUBCHEM_BOND_UDEF_STEREO_COUNT>
0

>  <PUBCHEM_ISOTOPIC_ATOM_COUNT>
0

>  <PUBCHEM_COMPONENT_COUNT>
1

>  <PUBCHEM_CACTVS_TAUTO_COUNT>
-1

>  <PUBCHEM_CONFORMER_ID>
086C5A6000000001

>  <PUBCHEM_MMFF94_ENERGY>
39.1862

>  <PUBCHEM_FEATURE_SELFOVERLAP>
15.223

>  <PUBCHEM_SHAPE_FINGERPRINT>
1 1 18264492775885548204
12532896 13 18339367456100044060
13132413 78 17693642732887631812
14648413 74 17828767244421989345
14817 1 17908391978161293268
15490181 7 18409733953978144239
16945 1 18122069964044087870
17134986 127 18336262345037724036
19837323 101 18189341336673907950
20510252 161 18049716622663025762
20600515 1 17257331646761984377
20711985 344 18051127287602434026
21130352 189 17255672002726955149
21524375 3 18343017787575755709
21930827 45 18270961383328190952
22802520 49 18055365874983844374
23402539 116 17764296632876588590
23419403 2 16903350221824466759
23557571 272 17617103946288522764
23559900 14 17832691749978751704
305870 269 18335696088249387840
430814 3 18408039589427507493
6992083 37 17824513414617961384
7364860 26 17976540511761892261
81228 2 17978518855260467627

>  <PUBCHEM_SHAPE_MULTIPOLES>
279.99
3.77
3.49
1.19
3.06
0.03
0.07
2.01
-0.56
-3.02
0.11
0.29
0.1
0.01

>  <PUBCHEM_SHAPE_SELFOVERLAP>
566.283

>  <PUBCHEM_SHAPE_VOLUME>
165.6

>  <PUBCHEM_COORDINATE_TYPE>
2
5
10

$$$$
