141396873
 OpenBabel01182520543D

 19 19  0  0  0  0  0  0  0  0999 V2000
    1.4555    1.6467   -0.5982 O   0  0  0  0  0  0  0  0  0  0  0  0
    3.1398   -0.6293   -0.6917 O   0  0  0  0  0  0  0  0  0  0  0  0
   -2.5907    0.4515    0.2024 N   0  0  0  0  0  0  0  0  0  0  0  0
   -1.0488    2.2477    0.3311 N   0  0  0  0  0  0  0  0  0  0  0  0
    2.2543   -0.7912    1.4575 N   0  0  0  0  0  0  0  0  0  0  0  0
   -0.2348    0.0343   -0.1447 C   0  0  0  0  0  0  0  0  0  0  0  0
   -1.3074    0.8694    0.1234 C   0  0  0  0  0  0  0  0  0  0  0  0
   -0.4959   -1.3168   -0.3445 C   0  0  0  0  0  0  0  0  0  0  0  0
    1.1383    0.5139   -0.2203 C   0  0  0  0  0  0  0  0  0  0  0  0
   -1.8033   -1.7847   -0.2713 C   0  0  0  0  0  0  0  0  0  0  0  0
   -2.8057   -0.8682    0.0025 C   0  0  0  0  0  0  0  0  0  0  0  0
    2.2987   -0.3732    0.1538 C   0  0  0  0  0  0  0  0  0  0  0  0
    0.2973   -2.0243   -0.5699 H   0  0  0  0  0  0  0  0  0  0  0  0
   -2.0310   -2.8331   -0.4262 H   0  0  0  0  0  0  0  0  0  0  0  0
   -3.8421   -1.1823    0.0697 H   0  0  0  0  0  0  0  0  0  0  0  0
   -0.1648    2.5178    0.7443 H   0  0  0  0  0  0  0  0  0  0  0  0
   -1.8528    2.8339    0.5204 H   0  0  0  0  0  0  0  0  0  0  0  0
    1.5118   -0.5175    2.0933 H   0  0  0  0  0  0  0  0  0  0  0  0
    2.9768   -1.3941    1.8369 H   0  0  0  0  0  0  0  0  0  0  0  0
  1  9  2  0  0  0  0
  2 12  2  0  0  0  0
  3  7  1  0  0  0  0
  3 11  2  0  0  0  0
  4  7  1  0  0  0  0
  4 16  1  0  0  0  0
  4 17  1  0  0  0  0
  5 12  1  0  0  0  0
  5 18  1  0  0  0  0
  5 19  1  0  0  0  0
  6  7  2  0  0  0  0
  6  8  1  0  0  0  0
  6  9  1  0  0  0  0
  8 10  2  0  0  0  0
  8 13  1  0  0  0  0
  9 12  1  0  0  0  0
 10 11  1  0  0  0  0
 10 14  1  0  0  0  0
 11 15  1  0  0  0  0
M  END
>  <PUBCHEM_COMPOUND_CID>
141396873

>  <PUBCHEM_CONFORMER_RMSD>
0.6

>  <PUBCHEM_CONFORMER_DIVERSEORDER>
1
9
15
13
5
4
14
2
10
6
3
8
7
11
12

>  <PUBCHEM_MMFF94_PARTIAL_CHARGES>
19
1 -0.57
10 -0.15
11 0.16
12 0.63
13 0.15
14 0.15
15 0.15
16 0.4
17 0.4
18 0.37
19 0.37
2 -0.57
3 -0.62
4 -0.9
5 -0.8
6 0.09
7 0.41
8 -0.15
9 0.48

>  <PUBCHEM_EFFECTIVE_ROTOR_COUNT>
2

>  <PUBCHEM_PHARMACOPHORE_FEATURES>
7
1 1 acceptor
1 2 acceptor
1 3 acceptor
1 4 cation
1 4 donor
1 5 donor
6 3 6 7 8 10 11 rings

>  <PUBCHEM_HEAVY_ATOM_COUNT>
12

>  <PUBCHEM_ATOM_DEF_STEREO_COUNT>
0

>  <PUBCHEM_ATOM_UDEF_STEREO_COUNT>
0

>  <PUBCHEM_BOND_DEF_STEREO_COUNT>
0

>  <PUBCHEM_BOND_UDEF_STEREO_COUNT>
0

>  <PUBCHEM_ISOTOPIC_ATOM_COUNT>
0

>  <PUBCHEM_COMPONENT_COUNT>
1

>  <PUBCHEM_CACTVS_TAUTO_COUNT>
-1

>  <PUBCHEM_CONFORMER_ID>
086D8B8900000001

>  <PUBCHEM_MMFF94_ENERGY>
38.4831

>  <PUBCHEM_FEATURE_SELFOVERLAP>
35.524

>  <PUBCHEM_SHAPE_FINGERPRINT>
10130415 120 18337388339902955515
10857977 72 18201993365398332147
12524768 44 18270964677457252607
12932764 1 17894627062996103407
14128692 85 18337113461674141212
15076042 46 18341615892959656785
15310529 11 16877659037223918350
16945 1 18411134697616919271
193761 8 17691974761079730031
20871998 184 18131071553923841063
21040471 1 18125160428962285604
23552423 10 18116433832842752631
2748010 2 18268427013342090551
369184 2 15769771364343413999
5084963 1 18060426784945626211
7364860 26 18127695039883461260

>  <PUBCHEM_SHAPE_MULTIPOLES>
220.27
4.13
1.83
0.82
0.94
0.6
0.17
-1.14
0.11
-0.61
-0.04
0.45
-0.12
-0.37

>  <PUBCHEM_SHAPE_SELFOVERLAP>
465.315

>  <PUBCHEM_SHAPE_VOLUME>
122.4

>  <PUBCHEM_COORDINATE_TYPE>
2
5
10

$$$$
