141455651
 OpenBabel01182520543D

 26 27  0  0  0  0  0  0  0  0999 V2000
    4.5189    1.0586   -0.2729 O   0  0  0  0  0  0  0  0  0  0  0  0
   -1.7438    0.0011    0.0826 N   0  0  0  0  0  0  0  0  0  0  0  0
    0.3349   -1.1574    0.2998 N   0  0  0  0  0  0  0  0  0  0  0  0
    4.5010   -1.1816    0.2164 N   0  0  0  0  0  0  0  0  0  0  0  0
   -2.4175   -1.2673   -0.2989 C   0  0  0  0  0  0  0  0  0  0  0  0
   -0.3190   -0.0003    0.0525 C   0  0  0  0  0  0  0  0  0  0  0  0
   -2.5107    1.1049    0.4422 C   0  0  0  0  0  0  0  0  0  0  0  0
   -3.9137   -1.1137   -0.4463 C   0  0  0  0  0  0  0  0  0  0  0  0
    0.3104    1.2009   -0.2319 C   0  0  0  0  0  0  0  0  0  0  0  0
   -3.8474    1.1557    0.3616 C   0  0  0  0  0  0  0  0  0  0  0  0
   -4.5681    0.0156   -0.1403 C   0  0  0  0  0  0  0  0  0  0  0  0
    2.4085    0.0449   -0.0158 C   0  0  0  0  0  0  0  0  0  0  0  0
    1.7005    1.2154   -0.2650 C   0  0  0  0  0  0  0  0  0  0  0  0
    1.6852   -1.1045    0.2590 C   0  0  0  0  0  0  0  0  0  0  0  0
    3.8606    0.0278   -0.0429 C   0  0  0  0  0  0  0  0  0  0  0  0
   -2.2196   -2.0348    0.4591 H   0  0  0  0  0  0  0  0  0  0  0  0
   -2.0163   -1.6178   -1.2579 H   0  0  0  0  0  0  0  0  0  0  0  0
   -1.9671    1.9562    0.8358 H   0  0  0  0  0  0  0  0  0  0  0  0
   -4.4714   -1.9696   -0.8153 H   0  0  0  0  0  0  0  0  0  0  0  0
   -0.2198    2.1184   -0.4612 H   0  0  0  0  0  0  0  0  0  0  0  0
   -4.4018    2.0357    0.6647 H   0  0  0  0  0  0  0  0  0  0  0  0
   -5.6433    0.0909   -0.2539 H   0  0  0  0  0  0  0  0  0  0  0  0
    2.2111    2.1469   -0.4938 H   0  0  0  0  0  0  0  0  0  0  0  0
    2.1332   -2.0678    0.4672 H   0  0  0  0  0  0  0  0  0  0  0  0
    4.0405   -2.0605    0.4163 H   0  0  0  0  0  0  0  0  0  0  0  0
    5.5154   -1.2204    0.2105 H   0  0  0  0  0  0  0  0  0  0  0  0
  1 15  2  0  0  0  0
  2  5  1  0  0  0  0
  2  6  1  0  0  0  0
  2  7  1  0  0  0  0
  3  6  2  0  0  0  0
  3 14  1  0  0  0  0
  4 15  1  0  0  0  0
  4 25  1  0  0  0  0
  4 26  1  0  0  0  0
  5  8  1  0  0  0  0
  5 16  1  0  0  0  0
  5 17  1  0  0  0  0
  6  9  1  0  0  0  0
  7 10  2  0  0  0  0
  7 18  1  0  0  0  0
  8 11  2  0  0  0  0
  8 19  1  0  0  0  0
  9 13  2  0  0  0  0
  9 20  1  0  0  0  0
 10 11  1  0  0  0  0
 10 21  1  0  0  0  0
 11 22  1  0  0  0  0
 12 13  1  0  0  0  0
 12 14  2  0  0  0  0
 12 15  1  0  0  0  0
 13 23  1  0  0  0  0
 14 24  1  0  0  0  0
M  END
>  <PUBCHEM_COMPOUND_CID>
141455651

>  <PUBCHEM_CONFORMER_RMSD>
0.6

>  <PUBCHEM_CONFORMER_DIVERSEORDER>
1
4
2
3

>  <PUBCHEM_MMFF94_PARTIAL_CHARGES>
24
1 -0.57
10 -0.15
11 -0.15
12 0.09
13 -0.15
14 0.16
15 0.54
18 0.15
19 0.15
2 -0.57
20 0.15
21 0.15
22 0.15
23 0.15
24 0.15
25 0.37
26 0.37
3 -0.62
4 -0.8
5 0.51
6 0.41
7 -0.05
8 -0.29
9 -0.15

>  <PUBCHEM_EFFECTIVE_ROTOR_COUNT>
2.4

>  <PUBCHEM_PHARMACOPHORE_FEATURES>
5
1 1 acceptor
1 4 donor
3 2 3 6 cation
6 2 5 7 8 10 11 rings
6 3 6 9 12 13 14 rings

>  <PUBCHEM_HEAVY_ATOM_COUNT>
15

>  <PUBCHEM_ATOM_DEF_STEREO_COUNT>
0

>  <PUBCHEM_ATOM_UDEF_STEREO_COUNT>
0

>  <PUBCHEM_BOND_DEF_STEREO_COUNT>
0

>  <PUBCHEM_BOND_UDEF_STEREO_COUNT>
0

>  <PUBCHEM_ISOTOPIC_ATOM_COUNT>
0

>  <PUBCHEM_COMPONENT_COUNT>
1

>  <PUBCHEM_CACTVS_TAUTO_COUNT>
-1

>  <PUBCHEM_CONFORMER_ID>
086E712300000001

>  <PUBCHEM_MMFF94_ENERGY>
51.8119

>  <PUBCHEM_FEATURE_SELFOVERLAP>
25.372

>  <PUBCHEM_SHAPE_FINGERPRINT>
10062212 137 18411975866904058939
10465860 250 17346313786873137033
11132069 177 18410288103696686848
11401426 45 18408881849746798248
11471102 20 18333448746722304868
11806522 49 18337951293766235215
12236239 1 18411700980913231745
13167823 11 18411980252065720106
13380535 76 18409732859025721619
13690532 89 18408885131154533938
13760787 5 17822014198759694294
14144814 61 18410573968446322763
15196674 1 18410293609686368260
15536298 74 18342455971683676016
17802600 8 18411132546049579861
17834072 33 18341612654691582724
17862501 102 18412540998716372746
18186145 218 17240482520203655434
18522853 276 18413671322582136841
19026448 4 16917068858626715312
200 152 18343015619118288247
20279233 1 15913331299358317229
20300324 65 18201999954300111715
20645477 70 18411420570967643574
21267235 1 18411145748905524871
221490 88 18119253006621534819
22485316 2 18410854365127779180
23402539 116 17989199331478438341
23402655 69 18410007702836457149
23557571 272 16128391349676902097
23559900 14 18131067147841127272
4214541 1 18412826863271193393
4990 188 18131078108407645782
5104073 3 18411419518193702451
573450 72 18341605988870613011
69090 78 18272086114803592311
77779 3 18412827983988398446
9709674 26 18342183275393778495
9981440 41 17327737808584838504

>  <PUBCHEM_SHAPE_MULTIPOLES>
287.88
9.3
1.48
0.66
1.52
0.02
0
0.29
0.28
-0.17
0
-0.11
-0.01
-0.62

>  <PUBCHEM_SHAPE_SELFOVERLAP>
615.105

>  <PUBCHEM_SHAPE_VOLUME>
157.6

>  <PUBCHEM_COORDINATE_TYPE>
2
5
10

$$$$
