14173724
 OpenBabel01182520543D

 21 22  0  0  0  0  0  0  0  0999 V2000
    0.1414    2.7439   -0.6033 O   0  0  0  0  0  0  0  0  0  0  0  0
   -2.0428    0.3610    0.8390 N   0  0  0  0  0  0  0  0  0  0  0  0
   -1.5702    1.5094    0.2549 N   0  0  0  0  0  0  0  0  0  0  0  0
   -0.9261   -1.3005   -0.4938 N   0  0  0  0  0  0  0  0  0  0  0  0
    1.2895   -1.7798   -0.1429 N   0  0  0  0  0  0  0  0  0  0  0  0
    0.6881    0.5483   -0.0327 C   0  0  0  0  0  0  0  0  0  0  0  0
    0.3542   -0.7957   -0.2083 C   0  0  0  0  0  0  0  0  0  0  0  0
   -1.9731   -0.7692    0.0565 C   0  0  0  0  0  0  0  0  0  0  0  0
   -0.2652    1.6743   -0.1484 C   0  0  0  0  0  0  0  0  0  0  0  0
    2.0286    0.8712    0.2185 C   0  0  0  0  0  0  0  0  0  0  0  0
   -3.2812   -1.5037   -0.1466 C   0  0  0  0  0  0  0  0  0  0  0  0
    2.9873   -0.1293    0.2974 C   0  0  0  0  0  0  0  0  0  0  0  0
    2.5694   -1.4299    0.1097 C   0  0  0  0  0  0  0  0  0  0  0  0
   -2.8711    0.5239    1.4055 H   0  0  0  0  0  0  0  0  0  0  0  0
   -2.2497    2.2594    0.1840 H   0  0  0  0  0  0  0  0  0  0  0  0
    2.3410    1.9030    0.3607 H   0  0  0  0  0  0  0  0  0  0  0  0
   -4.0763   -0.7898   -0.3804 H   0  0  0  0  0  0  0  0  0  0  0  0
   -3.5380   -2.0364    0.7735 H   0  0  0  0  0  0  0  0  0  0  0  0
   -3.1982   -2.2237   -0.9656 H   0  0  0  0  0  0  0  0  0  0  0  0
    4.0267    0.1048    0.4956 H   0  0  0  0  0  0  0  0  0  0  0  0
    3.2731   -2.2542    0.1563 H   0  0  0  0  0  0  0  0  0  0  0  0
  1  9  2  0  0  0  0
  2  3  1  0  0  0  0
  2  8  1  0  0  0  0
  2 14  1  0  0  0  0
  3  9  1  0  0  0  0
  3 15  1  0  0  0  0
  4  7  1  0  0  0  0
  4  8  2  0  0  0  0
  5  7  1  0  0  0  0
  5 13  2  0  0  0  0
  6  7  2  0  0  0  0
  6  9  1  0  0  0  0
  6 10  1  0  0  0  0
  8 11  1  0  0  0  0
 10 12  2  0  0  0  0
 10 16  1  0  0  0  0
 11 17  1  0  0  0  0
 11 18  1  0  0  0  0
 11 19  1  0  0  0  0
 12 13  1  0  0  0  0
 12 20  1  0  0  0  0
 13 21  1  0  0  0  0
M  END
>  <PUBCHEM_COMPOUND_CID>
14173724

>  <PUBCHEM_CONFORMER_RMSD>
0.4

>  <PUBCHEM_CONFORMER_DIVERSEORDER>
1
2

>  <PUBCHEM_MMFF94_PARTIAL_CHARGES>
18
1 -0.57
10 -0.15
11 0.06
12 -0.15
13 0.16
14 0.4
15 0.37
16 0.15
2 -0.47
20 0.15
21 0.15
3 -0.41
4 -0.63
5 -0.62
6 0.09
7 0.49
8 0.44
9 0.54

>  <PUBCHEM_EFFECTIVE_ROTOR_COUNT>
0.4

>  <PUBCHEM_PHARMACOPHORE_FEATURES>
7
1 1 acceptor
1 2 donor
1 3 donor
1 5 acceptor
3 2 4 8 cation
6 5 6 7 10 12 13 rings
7 2 3 4 6 7 8 9 rings

>  <PUBCHEM_HEAVY_ATOM_COUNT>
13

>  <PUBCHEM_ATOM_DEF_STEREO_COUNT>
0

>  <PUBCHEM_ATOM_UDEF_STEREO_COUNT>
0

>  <PUBCHEM_BOND_DEF_STEREO_COUNT>
0

>  <PUBCHEM_BOND_UDEF_STEREO_COUNT>
0

>  <PUBCHEM_ISOTOPIC_ATOM_COUNT>
0

>  <PUBCHEM_COMPONENT_COUNT>
1

>  <PUBCHEM_CACTVS_TAUTO_COUNT>
7

>  <PUBCHEM_CONFORMER_ID>
00D8461C00000001

>  <PUBCHEM_MMFF94_ENERGY>
53.5367

>  <PUBCHEM_FEATURE_SELFOVERLAP>
37.077

>  <PUBCHEM_SHAPE_FINGERPRINT>
12138202 97 17753883913837222620
12696612 119 18339654428766833851
161256 15 18341895186525517294
16945 1 18265902534412673090
193761 8 17978507529426718950
20645477 70 17902784495067899855
20871998 184 18201435831187700671
21501502 16 18338518521807744194
2334 1 18411419513893602383
23388829 49 18198338648877029853
23463225 33 18410013242864038978
23552423 10 18333736788577481974
23559900 14 17263003551295496518
241688 4 18409448046595249393
2748010 2 18412261696850728046
2897 32 17834394896808743116
5255222 1 18196369213267233512
528862 383 17901943372249661113

>  <PUBCHEM_SHAPE_MULTIPOLES>
241.74
4.15
2.31
0.69
0.78
1.02
-0.02
-1.99
-0.44
0.06
0.35
0.07
0.06
-0.18

>  <PUBCHEM_SHAPE_SELFOVERLAP>
520.781

>  <PUBCHEM_SHAPE_VOLUME>
130.3

>  <PUBCHEM_COORDINATE_TYPE>
2
5
10

$$$$
