141839417
 OpenBabel01182520543D

 32 33  0  0  0  0  0  0  0  0999 V2000
   -2.0898    1.6447    0.0067 O   0  0  0  0  0  0  0  0  0  0  0  0
    2.4753   -2.8199   -0.0037 O   0  0  0  0  0  0  0  0  0  0  0  0
   -1.5843   -0.6166    0.0030 N   0  0  0  0  0  0  0  0  0  0  0  0
    0.4562   -1.6955   -0.0004 N   0  0  0  0  0  0  0  0  0  0  0  0
    0.3335    0.6669    0.0032 N   0  0  0  0  0  0  0  0  0  0  0  0
    2.2903    1.9370    0.0025 N   0  0  0  0  0  0  0  0  0  0  0  0
   -3.9507    0.0756    0.0062 C   0  0  0  0  0  0  0  0  0  0  0  0
   -4.8292    1.3353   -0.0326 C   0  0  0  0  0  0  0  0  0  0  0  0
   -4.2550   -0.7725   -1.2421 C   0  0  0  0  0  0  0  0  0  0  0  0
   -4.2760   -0.7583    1.2548 C   0  0  0  0  0  0  0  0  0  0  0  0
   -2.4579    0.4695    0.0053 C   0  0  0  0  0  0  0  0  0  0  0  0
   -0.2316   -0.4978    0.0020 C   0  0  0  0  0  0  0  0  0  0  0  0
    2.5138   -0.4601   -0.0010 C   0  0  0  0  0  0  0  0  0  0  0  0
    1.7406    0.7003    0.0016 C   0  0  0  0  0  0  0  0  0  0  0  0
    1.8390   -1.7732   -0.0019 C   0  0  0  0  0  0  0  0  0  0  0  0
    3.9022   -0.3540   -0.0026 C   0  0  0  0  0  0  0  0  0  0  0  0
    4.4818    0.9085   -0.0017 C   0  0  0  0  0  0  0  0  0  0  0  0
    3.6417    2.0100    0.0009 C   0  0  0  0  0  0  0  0  0  0  0  0
   -5.8944    1.0788   -0.0440 H   0  0  0  0  0  0  0  0  0  0  0  0
   -4.6202    1.9391   -0.9232 H   0  0  0  0  0  0  0  0  0  0  0  0
   -4.6484    1.9688    0.8434 H   0  0  0  0  0  0  0  0  0  0  0  0
   -5.3270   -0.9865   -1.3219 H   0  0  0  0  0  0  0  0  0  0  0  0
   -3.7330   -1.7353   -1.2304 H   0  0  0  0  0  0  0  0  0  0  0  0
   -3.9486   -0.2482   -2.1548 H   0  0  0  0  0  0  0  0  0  0  0  0
   -5.3470   -0.9835    1.3105 H   0  0  0  0  0  0  0  0  0  0  0  0
   -3.7401   -1.7133    1.2705 H   0  0  0  0  0  0  0  0  0  0  0  0
   -3.9995   -0.2159    2.1663 H   0  0  0  0  0  0  0  0  0  0  0  0
   -1.9644   -1.5577    0.0048 H   0  0  0  0  0  0  0  0  0  0  0  0
   -0.0728   -2.5624   -0.0010 H   0  0  0  0  0  0  0  0  0  0  0  0
    4.5383   -1.2339   -0.0047 H   0  0  0  0  0  0  0  0  0  0  0  0
    5.5593    1.0278   -0.0029 H   0  0  0  0  0  0  0  0  0  0  0  0
    4.0475    3.0165    0.0017 H   0  0  0  0  0  0  0  0  0  0  0  0
  1 11  2  0  0  0  0
  2 15  2  0  0  0  0
  3 11  1  0  0  0  0
  3 12  1  0  0  0  0
  3 28  1  0  0  0  0
  4 12  1  0  0  0  0
  4 15  1  0  0  0  0
  4 29  1  0  0  0  0
  5 12  2  0  0  0  0
  5 14  1  0  0  0  0
  6 14  1  0  0  0  0
  6 18  2  0  0  0  0
  7  8  1  0  0  0  0
  7  9  1  0  0  0  0
  7 10  1  0  0  0  0
  7 11  1  0  0  0  0
  8 19  1  0  0  0  0
  8 20  1  0  0  0  0
  8 21  1  0  0  0  0
  9 22  1  0  0  0  0
  9 23  1  0  0  0  0
  9 24  1  0  0  0  0
 10 25  1  0  0  0  0
 10 26  1  0  0  0  0
 10 27  1  0  0  0  0
 13 14  2  0  0  0  0
 13 15  1  0  0  0  0
 13 16  1  0  0  0  0
 16 17  2  0  0  0  0
 16 30  1  0  0  0  0
 17 18  1  0  0  0  0
 17 31  1  0  0  0  0
 18 32  1  0  0  0  0
M  END
>  <PUBCHEM_COMPOUND_CID>
141839417

>  <PUBCHEM_CONFORMER_RMSD>
0.6

>  <PUBCHEM_CONFORMER_DIVERSEORDER>
1
2

>  <PUBCHEM_MMFF94_PARTIAL_CHARGES>
20
1 -0.57
11 0.57
12 0.57
13 0.09
14 0.49
15 0.54
16 -0.15
17 -0.15
18 0.16
2 -0.57
28 0.37
29 0.37
3 -0.49
30 0.15
31 0.15
32 0.15
4 -0.49
5 -0.63
6 -0.62
7 0.06

>  <PUBCHEM_EFFECTIVE_ROTOR_COUNT>
3

>  <PUBCHEM_PHARMACOPHORE_FEATURES>
8
1 1 acceptor
1 2 acceptor
1 3 donor
1 4 donor
1 6 acceptor
4 7 8 9 10 hydrophobe
6 4 5 12 13 14 15 rings
6 6 13 14 16 17 18 rings

>  <PUBCHEM_HEAVY_ATOM_COUNT>
18

>  <PUBCHEM_ATOM_DEF_STEREO_COUNT>
0

>  <PUBCHEM_ATOM_UDEF_STEREO_COUNT>
0

>  <PUBCHEM_BOND_DEF_STEREO_COUNT>
0

>  <PUBCHEM_BOND_UDEF_STEREO_COUNT>
0

>  <PUBCHEM_ISOTOPIC_ATOM_COUNT>
0

>  <PUBCHEM_COMPONENT_COUNT>
1

>  <PUBCHEM_CACTVS_TAUTO_COUNT>
-1

>  <PUBCHEM_CONFORMER_ID>
08744C3900000001

>  <PUBCHEM_MMFF94_ENERGY>
51.0623

>  <PUBCHEM_FEATURE_SELFOVERLAP>
40.681

>  <PUBCHEM_SHAPE_FINGERPRINT>
10411042 1 17834114148299489322
10608611 8 18334856074287585733
10616163 171 18271524294859515535
10967382 1 18410856568715072800
10980938 120 18412542098433839090
11471102 20 18410854365359868316
11615757 297 18060704996074246329
11796584 16 14620529899596037444
12107183 9 17694226560903978385
12236239 1 17847062181884451071
12644460 14 18334859385754831194
13009979 54 17486217712656194946
13167823 11 18273492381965391559
13380535 76 18335983155336828066
13583140 156 16806151285162864577
13862211 1 18410851024282000530
14251717 144 18411697682040894302
14289901 80 18343016675458755539
14576447 43 18129365146596116783
15196674 1 18410855464560461029
15219456 202 18334018289461172571
15375358 24 18186802491321595827
15442244 35 18124315999847917280
15536298 74 18342458106124075662
17834072 33 18271802445631220039
18186145 218 18273223009810706436
19050596 39 18411138017800628009
200 152 18273209807640433693
20645477 70 18341890741092292247
21054139 6 18200016482041263198
21267235 1 18411991234265304558
21524375 3 18341331192852903454
21709351 56 18410005546245968709
221490 88 18336835186300749762
22854114 111 18410573989530912020
22854114 59 18409449201952144192
23402539 116 18273208716275908413
23402655 69 18343299245546819949
23559900 14 18338513019638601282
25 1 18409164437494513526
3060560 45 18343304752059014110
3071541 37 18335425655997462342
335352 9 18410575068248387006
33824 294 18408603660726121714
3545911 37 18335706027035728437
42630746 31 18413389830383371982
474 4 18335138743038429332
4990 188 17847069895418972236
5104073 3 18335423426745717801
543358 83 18269277871906560457
58051976 378 18413669119021230062
602551 16 15266483166734519207
6333272 397 18409168852588992600
633830 44 18334856091572833063
69090 78 18342736359812069334
7364860 26 18341051818210334502
77779 3 18411139108833077897
81539 233 18259984894503032478
8272917 22 18341898441641456759
9709674 26 18409172090936792187

>  <PUBCHEM_SHAPE_MULTIPOLES>
338.77
10.08
2.14
0.78
5.72
0.5
0
-2.36
-0.01
-1.72
-0.01
0.81
0.13
0.01

>  <PUBCHEM_SHAPE_SELFOVERLAP>
723.123

>  <PUBCHEM_SHAPE_VOLUME>
187.2

>  <PUBCHEM_COORDINATE_TYPE>
2
5
10

$$$$
