142116037
 OpenBabel01182520543D

 21 21  0  0  0  0  0  0  0  0999 V2000
   -3.6430    1.4378   -0.0108 O   0  0  0  0  0  0  0  0  0  0  0  0
    3.2372    1.4532    0.0027 O   0  0  0  0  0  0  0  0  0  0  0  0
    2.2862   -0.7007   -0.0022 N   0  0  0  0  0  0  0  0  0  0  0  0
    0.4834    0.8303    0.0036 N   0  0  0  0  0  0  0  0  0  0  0  0
   -4.0841   -0.8125   -0.0013 N   0  0  0  0  0  0  0  0  0  0  0  0
    4.5726   -0.4008   -0.0051 N   0  0  0  0  0  0  0  0  0  0  0  0
   -1.7842   -0.0085    0.0042 C   0  0  0  0  0  0  0  0  0  0  0  0
    0.9082   -0.4532    0.0008 C   0  0  0  0  0  0  0  0  0  0  0  0
   -1.3087   -1.3151    0.0014 C   0  0  0  0  0  0  0  0  0  0  0  0
    0.0618   -1.5503   -0.0003 C   0  0  0  0  0  0  0  0  0  0  0  0
   -0.8553    1.0196    0.0052 C   0  0  0  0  0  0  0  0  0  0  0  0
   -3.2095    0.2713    0.0030 C   0  0  0  0  0  0  0  0  0  0  0  0
    3.3352    0.2288   -0.0012 C   0  0  0  0  0  0  0  0  0  0  0  0
   -1.9498   -2.1886   -0.0002 H   0  0  0  0  0  0  0  0  0  0  0  0
    0.4386   -2.5681   -0.0028 H   0  0  0  0  0  0  0  0  0  0  0  0
   -1.1544    2.0633    0.0071 H   0  0  0  0  0  0  0  0  0  0  0  0
    2.5618   -1.6798   -0.0051 H   0  0  0  0  0  0  0  0  0  0  0  0
   -3.8131   -1.7876    0.0043 H   0  0  0  0  0  0  0  0  0  0  0  0
   -5.0854   -0.6456   -0.0090 H   0  0  0  0  0  0  0  0  0  0  0  0
    4.6577   -1.4116   -0.0083 H   0  0  0  0  0  0  0  0  0  0  0  0
    5.4336    0.1357   -0.0048 H   0  0  0  0  0  0  0  0  0  0  0  0
  1 12  2  0  0  0  0
  2 13  2  0  0  0  0
  3  8  1  0  0  0  0
  3 13  1  0  0  0  0
  3 17  1  0  0  0  0
  4  8  2  0  0  0  0
  4 11  1  0  0  0  0
  5 12  1  0  0  0  0
  5 18  1  0  0  0  0
  5 19  1  0  0  0  0
  6 13  1  0  0  0  0
  6 20  1  0  0  0  0
  6 21  1  0  0  0  0
  7  9  1  0  0  0  0
  7 11  2  0  0  0  0
  7 12  1  0  0  0  0
  8 10  1  0  0  0  0
  9 10  2  0  0  0  0
  9 14  1  0  0  0  0
 10 15  1  0  0  0  0
 11 16  1  0  0  0  0
M  END
>  <PUBCHEM_COMPOUND_CID>
142116037

>  <PUBCHEM_CONFORMER_RMSD>
0.6

>  <PUBCHEM_CONFORMER_DIVERSEORDER>
1
11
13
9
6
10
5
2
12
14
7
4
8
3

>  <PUBCHEM_MMFF94_PARTIAL_CHARGES>
21
1 -0.57
10 -0.15
11 0.16
12 0.54
13 0.69
14 0.15
15 0.15
16 0.15
17 0.37
18 0.37
19 0.37
2 -0.57
20 0.37
21 0.37
3 -0.55
4 -0.62
5 -0.8
6 -0.8
7 0.09
8 0.43
9 -0.15

>  <PUBCHEM_EFFECTIVE_ROTOR_COUNT>
3

>  <PUBCHEM_PHARMACOPHORE_FEATURES>
6
1 1 acceptor
1 2 acceptor
1 3 donor
1 5 donor
1 6 donor
6 4 7 8 9 10 11 rings

>  <PUBCHEM_HEAVY_ATOM_COUNT>
13

>  <PUBCHEM_ATOM_DEF_STEREO_COUNT>
0

>  <PUBCHEM_ATOM_UDEF_STEREO_COUNT>
0

>  <PUBCHEM_BOND_DEF_STEREO_COUNT>
0

>  <PUBCHEM_BOND_UDEF_STEREO_COUNT>
0

>  <PUBCHEM_ISOTOPIC_ATOM_COUNT>
0

>  <PUBCHEM_COMPONENT_COUNT>
1

>  <PUBCHEM_CACTVS_TAUTO_COUNT>
-1

>  <PUBCHEM_CONFORMER_ID>
087884C500000001

>  <PUBCHEM_MMFF94_ENERGY>
35.5096

>  <PUBCHEM_FEATURE_SELFOVERLAP>
30.497

>  <PUBCHEM_SHAPE_FINGERPRINT>
10608611 8 18411979186850494760
11062470 55 18410575076073157325
11132069 177 18342731931837839728
11543360 7 15841256138556229085
12032990 46 18410862074483539539
12932764 1 17095508622262983110
13380535 76 18411420609216160654
14325111 11 18410855451691246977
14993402 34 18335416885220459319
17846911 113 18341608209474147976
18186145 218 18341336595510363740
193761 8 17690279734776867555
20281407 28 8862942783805683126
23402539 116 18272643537176113476
23402655 69 18273210868006927477
23463225 33 18335417937587803402
23559900 14 18271244929028017654
366044 4 18410573980893816427
4990 188 18060144219337379590
69090 78 18272085023934750646
7364860 26 18195526991713905218

>  <PUBCHEM_SHAPE_MULTIPOLES>
235.87
7.33
1.44
0.57
2.52
0.01
0
-1.07
0.02
-0.3
0
-0.02
0.02
0

>  <PUBCHEM_SHAPE_SELFOVERLAP>
493.262

>  <PUBCHEM_SHAPE_VOLUME>
131.2

>  <PUBCHEM_COORDINATE_TYPE>
2
5
10

$$$$
