142750710
 OpenBabel01182520543D

 26 26  0  0  0  0  0  0  0  0999 V2000
   -2.8220   -1.8406   -0.3726 Cl  0  0  0  0  0  0  0  0  0  0  0  0
    4.2235   -0.8501   -0.0899 O   0  0  0  0  0  0  0  0  0  0  0  0
   -2.0920   -0.3658    0.1202 N   0  0  0  0  0  0  0  0  0  0  0  0
   -0.1627    1.0084    0.1365 N   0  0  0  0  0  0  0  0  0  0  0  0
    3.9822    1.4263    0.0458 N   0  0  0  0  0  0  0  0  0  0  0  0
   -3.0004    0.7576    0.2004 C   0  0  0  0  0  0  0  0  0  0  0  0
   -3.3364    1.2413   -1.2044 C   0  0  0  0  0  0  0  0  0  0  0  0
   -4.2534    0.3368    0.9568 C   0  0  0  0  0  0  0  0  0  0  0  0
   -0.6978   -0.2323    0.0893 C   0  0  0  0  0  0  0  0  0  0  0  0
    0.0493   -1.3966    0.0115 C   0  0  0  0  0  0  0  0  0  0  0  0
    2.0222   -0.0207    0.0268 C   0  0  0  0  0  0  0  0  0  0  0  0
    1.4346   -1.2802   -0.0199 C   0  0  0  0  0  0  0  0  0  0  0  0
    1.1869    1.0820    0.1039 C   0  0  0  0  0  0  0  0  0  0  0  0
    3.4659    0.1338   -0.0044 C   0  0  0  0  0  0  0  0  0  0  0  0
   -2.5430    1.5799    0.7644 H   0  0  0  0  0  0  0  0  0  0  0  0
   -3.8511    0.4781   -1.7979 H   0  0  0  0  0  0  0  0  0  0  0  0
   -2.4319    1.5296   -1.7511 H   0  0  0  0  0  0  0  0  0  0  0  0
   -3.9906    2.1188   -1.1591 H   0  0  0  0  0  0  0  0  0  0  0  0
   -4.9111   -0.3229    0.3808 H   0  0  0  0  0  0  0  0  0  0  0  0
   -4.0062   -0.1573    1.9032 H   0  0  0  0  0  0  0  0  0  0  0  0
   -4.8505    1.2237    1.2003 H   0  0  0  0  0  0  0  0  0  0  0  0
   -0.3612   -2.3988   -0.0014 H   0  0  0  0  0  0  0  0  0  0  0  0
    2.0372   -2.1829   -0.0750 H   0  0  0  0  0  0  0  0  0  0  0  0
    1.5362    2.1059    0.1448 H   0  0  0  0  0  0  0  0  0  0  0  0
    3.4363    2.2761    0.1107 H   0  0  0  0  0  0  0  0  0  0  0  0
    4.9877    1.5634    0.0187 H   0  0  0  0  0  0  0  0  0  0  0  0
  1  3  1  0  0  0  0
  2 14  2  0  0  0  0
  3  6  1  0  0  0  0
  3  9  1  0  0  0  0
  4  9  2  0  0  0  0
  4 13  1  0  0  0  0
  5 14  1  0  0  0  0
  5 25  1  0  0  0  0
  5 26  1  0  0  0  0
  6  7  1  0  0  0  0
  6  8  1  0  0  0  0
  6 15  1  0  0  0  0
  7 16  1  0  0  0  0
  7 17  1  0  0  0  0
  7 18  1  0  0  0  0
  8 19  1  0  0  0  0
  8 20  1  0  0  0  0
  8 21  1  0  0  0  0
  9 10  1  0  0  0  0
 10 12  2  0  0  0  0
 10 22  1  0  0  0  0
 11 12  1  0  0  0  0
 11 13  2  0  0  0  0
 11 14  1  0  0  0  0
 12 23  1  0  0  0  0
 13 24  1  0  0  0  0
M  END
>  <PUBCHEM_COMPOUND_CID>
142750710

>  <PUBCHEM_CONFORMER_RMSD>
0.6

>  <PUBCHEM_CONFORMER_DIVERSEORDER>
1
9
16
10
18
3
13
14
11
5
12
6
17
20
7
4
2
19
8
15

>  <PUBCHEM_MMFF94_PARTIAL_CHARGES>
17
1 -0.04
10 -0.15
11 0.09
12 -0.15
13 0.16
14 0.54
2 -0.57
22 0.15
23 0.15
24 0.15
25 0.37
26 0.37
3 -0.43
4 -0.62
5 -0.8
6 0.37
9 0.41

>  <PUBCHEM_EFFECTIVE_ROTOR_COUNT>
3

>  <PUBCHEM_PHARMACOPHORE_FEATURES>
5
1 2 acceptor
1 5 donor
3 3 4 9 cation
3 6 7 8 hydrophobe
6 4 9 10 11 12 13 rings

>  <PUBCHEM_HEAVY_ATOM_COUNT>
14

>  <PUBCHEM_ATOM_DEF_STEREO_COUNT>
0

>  <PUBCHEM_ATOM_UDEF_STEREO_COUNT>
0

>  <PUBCHEM_BOND_DEF_STEREO_COUNT>
0

>  <PUBCHEM_BOND_UDEF_STEREO_COUNT>
0

>  <PUBCHEM_ISOTOPIC_ATOM_COUNT>
0

>  <PUBCHEM_COMPONENT_COUNT>
1

>  <PUBCHEM_CACTVS_TAUTO_COUNT>
-1

>  <PUBCHEM_CONFORMER_ID>
088233F600000001

>  <PUBCHEM_MMFF94_ENERGY>
50.9713

>  <PUBCHEM_FEATURE_SELFOVERLAP>
25.371

>  <PUBCHEM_SHAPE_FINGERPRINT>
10062212 137 18341040878543853934
10608611 8 18409163324707892564
11132069 177 18411410713769305088
11401426 45 18342730811025429226
11471102 20 18412259519618852444
11543360 7 15338828820018716592
12032990 46 18412832399547399910
12932764 1 18113610183977294195
13380535 76 18413109442060046767
13581323 91 15213022660649929195
13675066 3 18113622274262694730
14325111 11 18411699919718731994
14943859 89 18410856564135262547
15196674 1 18412545439849810610
15219456 202 18188490164397665831
15775835 57 18411140238267129915
16945 1 18270676472240363345
17844478 74 17968105187967057425
18186145 218 18413673513099769412
19026448 5 15985100799642841984
20645477 70 18131357367176457286
21501502 16 18266464397971457693
23402539 116 16917064434736625400
23402655 69 18342454820305471172
23559900 14 18273495681127794682
2748010 2 18269269243301425480
3312278 4 18343022194286028555
5104073 3 18412261770245156370
528886 8 18413384328329753867
53812653 166 18342737429300994272
6333449 129 18342172289188753255
633830 44 17846788403167583140
69090 78 18413387640250802767

>  <PUBCHEM_SHAPE_MULTIPOLES>
269.17
7.84
1.64
0.79
1.7
0.36
0.07
-1.46
-0.23
-0.35
0.21
-0.73
-0.14
0.13

>  <PUBCHEM_SHAPE_SELFOVERLAP>
543.73

>  <PUBCHEM_SHAPE_VOLUME>
158.8

>  <PUBCHEM_COORDINATE_TYPE>
2
5
10

$$$$
