142794569
 OpenBabel01182520543D

 26 26  0  0  0  0  0  0  0  0999 V2000
   -2.1505   -1.1271   -1.1288 F   0  0  0  0  0  0  0  0  0  0  0  0
   -2.1524   -1.1998    1.0513 F   0  0  0  0  0  0  0  0  0  0  0  0
   -3.7449    1.0600    1.1223 F   0  0  0  0  0  0  0  0  0  0  0  0
   -4.5872   -0.5941   -0.0255 F   0  0  0  0  0  0  0  0  0  0  0  0
   -3.7325    1.1271   -1.0582 F   0  0  0  0  0  0  0  0  0  0  0  0
    2.4617   -2.3522   -1.1142 O   0  0  0  0  0  0  0  0  0  0  0  0
    0.1724   -0.0906    0.0010 N   0  0  0  0  0  0  0  0  0  0  0  0
    1.4380    1.8811    0.0205 N   0  0  0  0  0  0  0  0  0  0  0  0
    2.4680   -2.3885    1.1788 N   0  0  0  0  0  0  0  0  0  0  0  0
   -1.0819    0.6253    0.0218 C   0  0  0  0  0  0  0  0  0  0  0  0
   -2.2378   -0.3601   -0.0121 C   0  0  0  0  0  0  0  0  0  0  0  0
    1.4113    0.5296    0.0017 C   0  0  0  0  0  0  0  0  0  0  0  0
   -3.5874    0.3124    0.0093 C   0  0  0  0  0  0  0  0  0  0  0  0
    2.5438   -0.2684   -0.0195 C   0  0  0  0  0  0  0  0  0  0  0  0
    3.7837    0.3612   -0.0213 C   0  0  0  0  0  0  0  0  0  0  0  0
    3.8520    1.7498   -0.0023 C   0  0  0  0  0  0  0  0  0  0  0  0
    2.4829   -1.7234   -0.0427 C   0  0  0  0  0  0  0  0  0  0  0  0
    2.6609    2.4576    0.0180 C   0  0  0  0  0  0  0  0  0  0  0  0
   -1.1400    1.2330    0.9320 H   0  0  0  0  0  0  0  0  0  0  0  0
   -1.1385    1.2881   -0.8493 H   0  0  0  0  0  0  0  0  0  0  0  0
    0.1423   -1.0630    0.2894 H   0  0  0  0  0  0  0  0  0  0  0  0
    4.7027   -0.2187   -0.0383 H   0  0  0  0  0  0  0  0  0  0  0  0
    4.8073    2.2621   -0.0035 H   0  0  0  0  0  0  0  0  0  0  0  0
    2.6597    3.5425    0.0333 H   0  0  0  0  0  0  0  0  0  0  0  0
    2.4915   -1.8916    2.0636 H   0  0  0  0  0  0  0  0  0  0  0  0
    2.4322   -3.4016    1.2209 H   0  0  0  0  0  0  0  0  0  0  0  0
  1 11  1  0  0  0  0
  2 11  1  0  0  0  0
  3 13  1  0  0  0  0
  4 13  1  0  0  0  0
  5 13  1  0  0  0  0
  6 17  2  0  0  0  0
  7 10  1  0  0  0  0
  7 12  1  0  0  0  0
  7 21  1  0  0  0  0
  8 12  1  0  0  0  0
  8 18  2  0  0  0  0
  9 17  1  0  0  0  0
  9 25  1  0  0  0  0
  9 26  1  0  0  0  0
 10 11  1  0  0  0  0
 10 19  1  0  0  0  0
 10 20  1  0  0  0  0
 11 13  1  0  0  0  0
 12 14  2  0  0  0  0
 14 15  1  0  0  0  0
 14 17  1  0  0  0  0
 15 16  2  0  0  0  0
 15 22  1  0  0  0  0
 16 18  1  0  0  0  0
 16 23  1  0  0  0  0
 18 24  1  0  0  0  0
M  END
>  <PUBCHEM_COMPOUND_CID>
142794569

>  <PUBCHEM_CONFORMER_RMSD>
0.6

>  <PUBCHEM_CONFORMER_DIVERSEORDER>
1
52
62
53
65
46
35
32
54
61
34
59
12
56
57
40
45
50
8
29
64
55
43
11
67
37
48
5
66
25
49
27
16
36
60
3
31
63
15
14
41
20
51
4
58
24
6
13
44
23
7
42
33
19
26
30
47
17
18
38
28
39
2
22
9
10
21

>  <PUBCHEM_MMFF94_PARTIAL_CHARGES>
24
1 -0.34
10 0.37
11 0.68
12 0.41
13 1.02
14 0.09
15 -0.15
16 -0.15
17 0.54
18 0.16
2 -0.34
21 0.4
22 0.15
23 0.15
24 0.15
25 0.37
26 0.37
3 -0.34
4 -0.34
5 -0.34
6 -0.57
7 -0.87
8 -0.62
9 -0.8

>  <PUBCHEM_EFFECTIVE_ROTOR_COUNT>
5

>  <PUBCHEM_PHARMACOPHORE_FEATURES>
6
1 6 acceptor
1 7 cation
1 7 donor
1 8 acceptor
1 9 donor
6 8 12 14 15 16 18 rings

>  <PUBCHEM_HEAVY_ATOM_COUNT>
18

>  <PUBCHEM_ATOM_DEF_STEREO_COUNT>
0

>  <PUBCHEM_ATOM_UDEF_STEREO_COUNT>
0

>  <PUBCHEM_BOND_DEF_STEREO_COUNT>
0

>  <PUBCHEM_BOND_UDEF_STEREO_COUNT>
0

>  <PUBCHEM_ISOTOPIC_ATOM_COUNT>
0

>  <PUBCHEM_COMPONENT_COUNT>
1

>  <PUBCHEM_CACTVS_TAUTO_COUNT>
-1

>  <PUBCHEM_CONFORMER_ID>
0882DF4900000001

>  <PUBCHEM_MMFF94_ENERGY>
46.1386

>  <PUBCHEM_FEATURE_SELFOVERLAP>
30.446

>  <PUBCHEM_SHAPE_FINGERPRINT>
10608611 8 18334009501720935437
10616163 171 18199186372332152063
10980938 120 18412544318884464900
11265709 11 17974282119817382434
11471102 20 18410854378255644508
116883 192 17982452598949069996
12346645 6 18342175574928204204
12553582 1 17977954488332400562
14144814 61 18272654519518310865
14251717 144 18411980273840879718
14415576 193 18335704996127799444
15375358 24 18113897190761073392
15442244 35 18197502813860774288
18186145 218 18335424517477577499
19049666 15 18041273249503528829
20279233 1 17894351094188643243
20645477 56 18040433291946150253
20645477 70 18413107247204891870
20871998 22 18126003759398697014
2255824 54 18410014338497515326
22854114 111 18410294743747930804
23402655 69 18341895212026769988
23557571 272 16153696596767764126
23559900 14 18339355275794351794
3060560 45 18272374183282882150
33824 294 18408884066271657010
4072396 5 18335685149568955176
474 4 18263363758059782584
5104073 3 18408886213739643961
543358 83 18340774723794239232
633830 44 18269280221786824516
7364860 26 18342459231779943116
81228 2 17476634279213840840
81539 233 18335984259417515500
8272917 22 18271533021800011495
9709674 26 18408890654535659411

>  <PUBCHEM_SHAPE_MULTIPOLES>
313.25
8.25
2.37
0.89
6.68
0.49
0.01
-1.46
0
-2.71
0.04
0.29
0.3
-0.02

>  <PUBCHEM_SHAPE_SELFOVERLAP>
660.556

>  <PUBCHEM_SHAPE_VOLUME>
175.7

>  <PUBCHEM_COORDINATE_TYPE>
2
5
10

$$$$
