142824273
 OpenBabel01182520543D

 42 43  0  0  0  0  0  0  0  0999 V2000
   -2.9147   -2.3537   -0.9337 O   0  0  0  0  0  0  0  0  0  0  0  0
   -0.8504    1.0778    0.7021 N   0  0  0  0  0  0  0  0  0  0  0  0
   -0.8846   -1.7853   -0.1787 N   0  0  0  0  0  0  0  0  0  0  0  0
   -2.8585    2.1689    0.4311 N   0  0  0  0  0  0  0  0  0  0  0  0
    0.1892   -1.1059    0.3445 C   0  0  0  0  0  0  0  0  0  0  0  0
    0.1856    0.1828    0.7451 C   0  0  0  0  0  0  0  0  0  0  0  0
    1.3849   -1.9340    0.4210 C   0  0  0  0  0  0  0  0  0  0  0  0
   -2.7939   -0.1329   -0.2339 C   0  0  0  0  0  0  0  0  0  0  0  0
   -2.1709    0.9950    0.2849 C   0  0  0  0  0  0  0  0  0  0  0  0
   -2.1927   -1.4687   -0.4593 C   0  0  0  0  0  0  0  0  0  0  0  0
    2.5768   -1.3993    0.1042 C   0  0  0  0  0  0  0  0  0  0  0  0
    1.4474    0.8005    1.3392 C   0  0  0  0  0  0  0  0  0  0  0  0
    4.0249    0.4993   -0.6415 C   0  0  0  0  0  0  0  0  0  0  0  0
    1.1158   -3.3407    0.8708 C   0  0  0  0  0  0  0  0  0  0  0  0
    2.8283   -0.0364   -0.3238 C   0  0  0  0  0  0  0  0  0  0  0  0
    4.2569    1.9349   -1.0597 C   0  0  0  0  0  0  0  0  0  0  0  0
   -4.1540   -0.0142   -0.5977 C   0  0  0  0  0  0  0  0  0  0  0  0
    5.2719   -0.3458   -0.5671 C   0  0  0  0  0  0  0  0  0  0  0  0
   -4.8481    1.1770   -0.4474 C   0  0  0  0  0  0  0  0  0  0  0  0
    4.5414    2.8416    0.1289 C   0  0  0  0  0  0  0  0  0  0  0  0
   -4.1551    2.2392    0.0711 C   0  0  0  0  0  0  0  0  0  0  0  0
   -0.6190    2.0073    1.0425 H   0  0  0  0  0  0  0  0  0  0  0  0
   -0.6919   -2.7399   -0.4665 H   0  0  0  0  0  0  0  0  0  0  0  0
    3.4373   -2.0579    0.1872 H   0  0  0  0  0  0  0  0  0  0  0  0
    1.8096    1.6940    0.8197 H   0  0  0  0  0  0  0  0  0  0  0  0
    2.1799    0.1672    1.8501 H   0  0  0  0  0  0  0  0  0  0  0  0
    1.0687    1.2892    2.2597 H   0  0  0  0  0  0  0  0  0  0  0  0
    0.3857   -3.3811    1.6871 H   0  0  0  0  0  0  0  0  0  0  0  0
    2.0367   -3.7919    1.2597 H   0  0  0  0  0  0  0  0  0  0  0  0
    0.7821   -3.9800    0.0471 H   0  0  0  0  0  0  0  0  0  0  0  0
    2.0134    0.5266   -0.7791 H   0  0  0  0  0  0  0  0  0  0  0  0
    5.0754    1.9915   -1.7869 H   0  0  0  0  0  0  0  0  0  0  0  0
    3.3676    2.3118   -1.5803 H   0  0  0  0  0  0  0  0  0  0  0  0
   -4.7065   -0.8559   -1.0107 H   0  0  0  0  0  0  0  0  0  0  0  0
    5.3409   -1.0044   -1.4389 H   0  0  0  0  0  0  0  0  0  0  0  0
    5.3167   -0.9421    0.3495 H   0  0  0  0  0  0  0  0  0  0  0  0
    6.1705    0.2815   -0.5567 H   0  0  0  0  0  0  0  0  0  0  0  0
   -5.8908    1.2613   -0.7285 H   0  0  0  0  0  0  0  0  0  0  0  0
    3.7141    2.8560    0.8431 H   0  0  0  0  0  0  0  0  0  0  0  0
    4.7026    3.8687   -0.2146 H   0  0  0  0  0  0  0  0  0  0  0  0
    5.4429    2.5218    0.6622 H   0  0  0  0  0  0  0  0  0  0  0  0
   -4.6279    3.2036    0.2184 H   0  0  0  0  0  0  0  0  0  0  0  0
  1 10  2  0  0  0  0
  2  6  1  0  0  0  0
  2  9  1  0  0  0  0
  2 22  1  0  0  0  0
  3  5  1  0  0  0  0
  3 10  1  0  0  0  0
  3 23  1  0  0  0  0
  4  9  1  0  0  0  0
  4 21  2  0  0  0  0
  5  6  2  0  0  0  0
  5  7  1  0  0  0  0
  6 12  1  0  0  0  0
  7 11  2  0  0  0  0
  7 14  1  0  0  0  0
  8  9  2  0  0  0  0
  8 10  1  0  0  0  0
  8 17  1  0  0  0  0
 11 15  1  0  0  0  0
 11 24  1  0  0  0  0
 12 25  1  0  0  0  0
 12 26  1  0  0  0  0
 12 27  1  0  0  0  0
 13 15  2  0  0  0  0
 13 16  1  0  0  0  0
 13 18  1  0  0  0  0
 14 28  1  0  0  0  0
 14 29  1  0  0  0  0
 14 30  1  0  0  0  0
 15 31  1  0  0  0  0
 16 20  1  0  0  0  0
 16 32  1  0  0  0  0
 16 33  1  0  0  0  0
 17 19  2  0  0  0  0
 17 34  1  0  0  0  0
 18 35  1  0  0  0  0
 18 36  1  0  0  0  0
 18 37  1  0  0  0  0
 19 21  1  0  0  0  0
 19 38  1  0  0  0  0
 20 39  1  0  0  0  0
 20 40  1  0  0  0  0
 20 41  1  0  0  0  0
 21 42  1  0  0  0  0
M  END
>  <PUBCHEM_COMPOUND_CID>
142824273

>  <PUBCHEM_CONFORMER_RMSD>
0.6

>  <PUBCHEM_CONFORMER_DIVERSEORDER>
2
1

>  <PUBCHEM_MMFF94_PARTIAL_CHARGES>
27
1 -0.57
10 0.54
11 -0.15
12 0.14
13 -0.28
14 0.14
15 -0.15
16 0.14
17 -0.15
18 0.14
19 -0.15
2 -0.6
21 0.16
22 0.4
23 0.37
24 0.15
3 -0.54
31 0.15
34 0.15
38 0.15
4 -0.62
42 0.15
5 0.11
6 -0.04
7 -0.14
8 0.09
9 0.41

>  <PUBCHEM_EFFECTIVE_ROTOR_COUNT>
3.4

>  <PUBCHEM_PHARMACOPHORE_FEATURES>
10
1 1 acceptor
1 14 hydrophobe
1 18 hydrophobe
1 2 cation
1 2 donor
1 20 hydrophobe
1 3 donor
1 4 acceptor
6 4 8 9 17 19 21 rings
7 2 3 5 6 8 9 10 rings

>  <PUBCHEM_HEAVY_ATOM_COUNT>
21

>  <PUBCHEM_ATOM_DEF_STEREO_COUNT>
0

>  <PUBCHEM_ATOM_UDEF_STEREO_COUNT>
0

>  <PUBCHEM_BOND_DEF_STEREO_COUNT>
2

>  <PUBCHEM_BOND_UDEF_STEREO_COUNT>
0

>  <PUBCHEM_ISOTOPIC_ATOM_COUNT>
0

>  <PUBCHEM_COMPONENT_COUNT>
1

>  <PUBCHEM_CACTVS_TAUTO_COUNT>
-1

>  <PUBCHEM_CONFORMER_ID>
0883535100000002

>  <PUBCHEM_MMFF94_ENERGY>
126.6331

>  <PUBCHEM_FEATURE_SELFOVERLAP>
50.753

>  <PUBCHEM_SHAPE_FINGERPRINT>
10411042 1 17112694251099308962
10498660 4 18410570716713299325
10759866 29 18337953377020883875
11796584 16 13326563030646326141
12173636 292 18264209278295901838
12596602 18 12613048184031665300
12670546 177 18202005442946725404
12788726 201 17102287313596977130
14790565 3 18127984018400530361
15196674 1 18411419557217717884
15342168 16 17749121009975402614
15415430 112 18343580746388117447
15420108 30 17046561371546413088
17959699 21 18410295830638413900
17980427 23 18124002725556307186
18681886 176 18270955753227848842
19784866 34 18407757053704566522
22393880 68 18413388743919968708
2255824 54 18118400640054753827
23227448 37 18411703222263960836
23366157 5 18116427038205062322
23402539 116 18412260653917376294
23559900 14 18202846531299035314
3472631 163 18413111632582961149
394222 165 18260542290916463562
4340502 62 17240774934831321779
474 4 17967257494155161876
5104073 3 18259704497257015922
6034566 193 17388846328673540108
633830 44 18410289229310519094
67856867 119 18335691707488195882
84936 182 18411699881375360448
9981440 41 18262514931014889930

>  <PUBCHEM_SHAPE_MULTIPOLES>
411.36
10.17
3.17
0.97
1.89
0.73
-0.07
-6.83
3.08
0.84
-0.31
0.26
-0.01
-0.89

>  <PUBCHEM_SHAPE_SELFOVERLAP>
870.456

>  <PUBCHEM_SHAPE_VOLUME>
228.4

>  <PUBCHEM_COORDINATE_TYPE>
2
5
10

$$$$
