142987271
 OpenBabel01182520543D

 36 36  0  0  0  0  0  0  0  0999 V2000
    0.7816   -2.3067   -1.1324 O   0  0  0  0  0  0  0  0  0  0  0  0
   -0.4093   -0.9964    0.3663 N   0  0  0  0  0  0  0  0  0  0  0  0
   -3.5590    0.6817    0.4691 N   0  0  0  0  0  0  0  0  0  0  0  0
    4.3724   -0.4812    0.0099 N   0  0  0  0  0  0  0  0  0  0  0  0
    5.4390    1.5394    0.6855 N   0  0  0  0  0  0  0  0  0  0  0  0
   -2.5339   -1.0758   -0.8798 C   0  0  0  0  0  0  0  0  0  0  0  0
   -1.6681   -1.6772    0.2268 C   0  0  0  0  0  0  0  0  0  0  0  0
   -2.8485    0.3952   -0.6649 C   0  0  0  0  0  0  0  0  0  0  0  0
    0.7294   -1.3734   -0.3358 C   0  0  0  0  0  0  0  0  0  0  0  0
   -2.4039    1.3015   -1.5580 C   0  0  0  0  0  0  0  0  0  0  0  0
    1.9580   -0.5850   -0.0601 C   0  0  0  0  0  0  0  0  0  0  0  0
    1.8814    0.7352    0.3697 C   0  0  0  0  0  0  0  0  0  0  0  0
   -2.6027    2.7828   -1.5106 C   0  0  0  0  0  0  0  0  0  0  0  0
    3.2162   -1.1419   -0.2231 C   0  0  0  0  0  0  0  0  0  0  0  0
    3.0490    1.4479    0.6198 C   0  0  0  0  0  0  0  0  0  0  0  0
   -4.4691   -0.1348    1.0449 C   0  0  0  0  0  0  0  0  0  0  0  0
    4.2583    0.7999    0.4264 C   0  0  0  0  0  0  0  0  0  0  0  0
   -5.1907    0.0887    2.1462 C   0  0  0  0  0  0  0  0  0  0  0  0
   -3.4483   -1.6639   -1.0146 H   0  0  0  0  0  0  0  0  0  0  0  0
   -1.9932   -1.1998   -1.8290 H   0  0  0  0  0  0  0  0  0  0  0  0
   -1.4772   -2.7322   -0.0013 H   0  0  0  0  0  0  0  0  0  0  0  0
   -2.1629   -1.6459    1.2020 H   0  0  0  0  0  0  0  0  0  0  0  0
   -0.3693   -0.2466    1.0482 H   0  0  0  0  0  0  0  0  0  0  0  0
   -1.8334    0.9543   -2.4175 H   0  0  0  0  0  0  0  0  0  0  0  0
   -3.5326    1.6367    0.8080 H   0  0  0  0  0  0  0  0  0  0  0  0
    0.9339    1.2507    0.4940 H   0  0  0  0  0  0  0  0  0  0  0  0
   -3.2273    3.1106   -0.6761 H   0  0  0  0  0  0  0  0  0  0  0  0
   -1.6330    3.2832   -1.4275 H   0  0  0  0  0  0  0  0  0  0  0  0
   -3.0815    3.1185   -2.4359 H   0  0  0  0  0  0  0  0  0  0  0  0
    3.3471   -2.1683   -0.5520 H   0  0  0  0  0  0  0  0  0  0  0  0
    2.9974    2.4804    0.9500 H   0  0  0  0  0  0  0  0  0  0  0  0
   -4.6463   -1.0815    0.5479 H   0  0  0  0  0  0  0  0  0  0  0  0
    5.4119    2.5454    0.5731 H   0  0  0  0  0  0  0  0  0  0  0  0
    6.3205    1.0639    0.5369 H   0  0  0  0  0  0  0  0  0  0  0  0
   -5.8981   -0.6517    2.5035 H   0  0  0  0  0  0  0  0  0  0  0  0
   -5.0886    1.0102    2.7091 H   0  0  0  0  0  0  0  0  0  0  0  0
  1  9  2  0  0  0  0
  2  7  1  0  0  0  0
  2  9  1  0  0  0  0
  2 23  1  0  0  0  0
  3  8  1  0  0  0  0
  3 16  1  0  0  0  0
  3 25  1  0  0  0  0
  4 14  1  0  0  0  0
  4 17  2  0  0  0  0
  5 17  1  0  0  0  0
  5 33  1  0  0  0  0
  5 34  1  0  0  0  0
  6  7  1  0  0  0  0
  6  8  1  0  0  0  0
  6 19  1  0  0  0  0
  6 20  1  0  0  0  0
  7 21  1  0  0  0  0
  7 22  1  0  0  0  0
  8 10  2  0  0  0  0
  9 11  1  0  0  0  0
 10 13  1  0  0  0  0
 10 24  1  0  0  0  0
 11 12  1  0  0  0  0
 11 14  2  0  0  0  0
 12 15  2  0  0  0  0
 12 26  1  0  0  0  0
 13 27  1  0  0  0  0
 13 28  1  0  0  0  0
 13 29  1  0  0  0  0
 14 30  1  0  0  0  0
 15 17  1  0  0  0  0
 15 31  1  0  0  0  0
 16 18  2  0  0  0  0
 16 32  1  0  0  0  0
 18 35  1  0  0  0  0
 18 36  1  0  0  0  0
M  END
>  <PUBCHEM_COMPOUND_CID>
142987271

>  <PUBCHEM_CONFORMER_RMSD>
0.8

>  <PUBCHEM_CONFORMER_DIVERSEORDER>
1
135
26
65
137
36
101
95
72
15
100
59
91
92
112
2
23
54
61
106
81
60
24
103
148
108
122
38
31
43
56
94
32
130
88
18
27
119
66
129
89
39
80
99
141
143
113
70
47
20
98
107
150
53
104
57
85
73
9
6
118
138
144
7
96
16
82
41
79
8
149
117
131
52
125
34
147
105
19
11
121
124
30
74
67
5
29
35
109
68
123
40
37
133
3
12
45
102
114
151
49
142
28
62
83
115
140
136
10
78
152
58
4
128
153
127
145
33
48
111
76
44
146
42
90
64
51
132
17
46
116
13
55
75
77
50
69
97
25
126
110
120
93
139
14
84
22
134
71
21
87
86
63

>  <PUBCHEM_MMFF94_PARTIAL_CHARGES>
29
1 -0.57
10 -0.29
11 0.09
12 -0.15
13 0.14
14 0.16
15 -0.15
16 -0.05
17 0.41
18 -0.3
2 -0.73
23 0.37
24 0.15
25 0.4
26 0.15
3 -0.6
30 0.15
31 0.15
32 0.15
33 0.4
34 0.4
35 0.15
36 0.15
4 -0.62
5 -0.9
6 0.14
7 0.3
8 -0.04
9 0.54

>  <PUBCHEM_EFFECTIVE_ROTOR_COUNT>
7

>  <PUBCHEM_PHARMACOPHORE_FEATURES>
8
1 1 acceptor
1 13 hydrophobe
1 2 donor
1 3 cation
1 3 donor
1 5 donor
3 4 5 17 cation
6 4 11 12 14 15 17 rings

>  <PUBCHEM_HEAVY_ATOM_COUNT>
18

>  <PUBCHEM_ATOM_DEF_STEREO_COUNT>
0

>  <PUBCHEM_ATOM_UDEF_STEREO_COUNT>
0

>  <PUBCHEM_BOND_DEF_STEREO_COUNT>
1

>  <PUBCHEM_BOND_UDEF_STEREO_COUNT>
0

>  <PUBCHEM_ISOTOPIC_ATOM_COUNT>
0

>  <PUBCHEM_COMPONENT_COUNT>
1

>  <PUBCHEM_CACTVS_TAUTO_COUNT>
-1

>  <PUBCHEM_CONFORMER_ID>
0885D00700000001

>  <PUBCHEM_MMFF94_ENERGY>
46.4083

>  <PUBCHEM_FEATURE_SELFOVERLAP>
40.596

>  <PUBCHEM_SHAPE_FINGERPRINT>
11595378 159 17458615714085110312
12403259 415 18409169870448821084
12403814 3 18335419080470921891
12892183 10 17530676585373093074
13583140 156 16951106452582451173
14178342 30 16951412010036727205
15188451 53 15647335294677907139
15342168 16 18131079237968181019
18186145 218 18202560670638515198
19433438 15 16343981399154172972
19433438 28 18114183003950217042
20645476 183 15698278906924567871
20645477 56 18410011043909569670
20871999 31 14189565352195755005
21652331 79 18335416872319843541
23402539 116 18192419978160057295
23402655 69 17489870475077542506
23503958 25 18261116210041947373
23557571 272 17749401312916566863
23559900 14 17846777430401841442
27216 239 18260261907209241301
2838139 119 15265631097559244256
5104073 3 18041836186661765144
621550 34 18337963281605858575
633830 44 17418377995498284926

>  <PUBCHEM_SHAPE_MULTIPOLES>
344.64
10.71
2.22
1.43
2.82
0.76
0.23
3.32
5.11
-0.33
-0.98
-2.05
0.3
1.68

>  <PUBCHEM_SHAPE_SELFOVERLAP>
698.718

>  <PUBCHEM_SHAPE_VOLUME>
198.5

>  <PUBCHEM_COORDINATE_TYPE>
2
5
10

$$$$
