143014737
 OpenBabel01182520543D

 36 36  0  0  0  0  0  0  0  0999 V2000
   -5.8967   -0.6665    1.2945 O   0  0  0  0  0  0  0  0  0  0  0  0
    1.5780    2.3314    1.1283 O   0  0  0  0  0  0  0  0  0  0  0  0
    0.5791    1.5431   -0.8113 N   0  0  0  0  0  0  0  0  0  0  0  0
   -6.0070   -2.4241   -0.1824 N   0  0  0  0  0  0  0  0  0  0  0  0
    3.1243   -1.7955   -0.5916 N   0  0  0  0  0  0  0  0  0  0  0  0
    5.2928   -2.6526   -0.1023 N   0  0  0  0  0  0  0  0  0  0  0  0
   -2.3455    0.8610   -0.7259 C   0  0  0  0  0  0  0  0  0  0  0  0
   -1.7192    2.1390   -0.1589 C   0  0  0  0  0  0  0  0  0  0  0  0
   -3.6125    0.4768    0.0457 C   0  0  0  0  0  0  0  0  0  0  0  0
   -0.4470    2.5452   -0.8959 C   0  0  0  0  0  0  0  0  0  0  0  0
   -4.2438   -0.8125   -0.4771 C   0  0  0  0  0  0  0  0  0  0  0  0
   -5.4599   -1.2594    0.3126 C   0  0  0  0  0  0  0  0  0  0  0  0
    1.5223    1.5178    0.2099 C   0  0  0  0  0  0  0  0  0  0  0  0
    2.5334    0.4318    0.1401 C   0  0  0  0  0  0  0  0  0  0  0  0
    3.7932    0.5873    0.7080 C   0  0  0  0  0  0  0  0  0  0  0  0
    2.2510   -0.7680   -0.4926 C   0  0  0  0  0  0  0  0  0  0  0  0
    4.7188   -0.4472    0.6267 C   0  0  0  0  0  0  0  0  0  0  0  0
    4.3386   -1.6077   -0.0278 C   0  0  0  0  0  0  0  0  0  0  0  0
   -2.5899    1.0079   -1.7848 H   0  0  0  0  0  0  0  0  0  0  0  0
   -1.6297    0.0326   -0.6695 H   0  0  0  0  0  0  0  0  0  0  0  0
   -2.4433    2.9598   -0.2239 H   0  0  0  0  0  0  0  0  0  0  0  0
   -1.4944    1.9918    0.9048 H   0  0  0  0  0  0  0  0  0  0  0  0
   -4.3442    1.2920   -0.0158 H   0  0  0  0  0  0  0  0  0  0  0  0
   -3.3684    0.3563    1.1087 H   0  0  0  0  0  0  0  0  0  0  0  0
   -0.0667    3.4856   -0.4821 H   0  0  0  0  0  0  0  0  0  0  0  0
   -0.6577    2.7086   -1.9582 H   0  0  0  0  0  0  0  0  0  0  0  0
   -4.5456   -0.6783   -1.5228 H   0  0  0  0  0  0  0  0  0  0  0  0
   -3.5066   -1.6241   -0.4451 H   0  0  0  0  0  0  0  0  0  0  0  0
    0.6229    0.8695   -1.5685 H   0  0  0  0  0  0  0  0  0  0  0  0
    4.0716    1.5079    1.2137 H   0  0  0  0  0  0  0  0  0  0  0  0
    1.2849   -0.9838   -0.9365 H   0  0  0  0  0  0  0  0  0  0  0  0
   -6.8220   -2.8436    0.2524 H   0  0  0  0  0  0  0  0  0  0  0  0
   -5.6248   -2.9018   -0.9923 H   0  0  0  0  0  0  0  0  0  0  0  0
    5.7039   -0.3328    1.0673 H   0  0  0  0  0  0  0  0  0  0  0  0
    6.2757   -2.4093   -0.0919 H   0  0  0  0  0  0  0  0  0  0  0  0
    5.0129   -3.4964   -0.5869 H   0  0  0  0  0  0  0  0  0  0  0  0
  1 12  2  0  0  0  0
  2 13  2  0  0  0  0
  3 10  1  0  0  0  0
  3 13  1  0  0  0  0
  3 29  1  0  0  0  0
  4 12  1  0  0  0  0
  4 32  1  0  0  0  0
  4 33  1  0  0  0  0
  5 16  1  0  0  0  0
  5 18  2  0  0  0  0
  6 18  1  0  0  0  0
  6 35  1  0  0  0  0
  6 36  1  0  0  0  0
  7  8  1  0  0  0  0
  7  9  1  0  0  0  0
  7 19  1  0  0  0  0
  7 20  1  0  0  0  0
  8 10  1  0  0  0  0
  8 21  1  0  0  0  0
  8 22  1  0  0  0  0
  9 11  1  0  0  0  0
  9 23  1  0  0  0  0
  9 24  1  0  0  0  0
 10 25  1  0  0  0  0
 10 26  1  0  0  0  0
 11 12  1  0  0  0  0
 11 27  1  0  0  0  0
 11 28  1  0  0  0  0
 13 14  1  0  0  0  0
 14 15  1  0  0  0  0
 14 16  2  0  0  0  0
 15 17  2  0  0  0  0
 15 30  1  0  0  0  0
 16 31  1  0  0  0  0
 17 18  1  0  0  0  0
 17 34  1  0  0  0  0
M  END
>  <PUBCHEM_COMPOUND_CID>
143014737

>  <PUBCHEM_CONFORMER_RMSD>
0.8

>  <PUBCHEM_CONFORMER_DIVERSEORDER>
1
360
70
178
328
84
345
73
291
288
39
152
194
278
83
65
36
358
241
354
167
230
311
63
135
87
326
171
225
80
323
180
300
303
133
283
210
263
17
250
313
233
238
219
7
122
146
37
98
282
26
24
299
60
217
255
262
356
284
64
15
289
190
285
168
364
245
332
12
351
79
109
200
165
20
154
5
329
27
120
350
158
240
174
302
170
163
149
119
21
179
306
305
100
337
220
249
77
296
352
237
199
341
124
232
49
18
99
138
266
251
224
338
327
259
308
92
348
78
248
126
365
38
208
10
191
286
235
188
342
108
50
118
89
201
161
277
25
107
202
310
234
125
316
53
368
330
307
31
275
43
333
292
221
162
304
214
47
52
335
93
82
121
246
242
267
3
272
253
261
309
66
361
206
198
13
181
347
34
90
75
62
2
19
355
128
301
51
159
28
116
11
132
265
320
269
143
213
61
123
362
58
173
344
322
260
72
71
268
331
16
106
22
67
23
222
258
131
48
293
319
102
81
207
156
334
6
175
343
111
4
172
321
274
76
183
216
211
40
203
164
243
14
295
357
166
115
127
185
264
157
252
86
287
41
359
256
9
97
114
236
68
318
74
134
30
315
44
160
29
142
147
298
229
336
8
103
88
226
136
273
57
110
317
33
85
184
45
363
228
42
366
340
140
294
218
94
276
54
151
297
176
271
117
104
279
55
91
113
290
280
186
227
312
247
169
270
324
193
95
209
257
155
349
346
325
112
212
141
189
105
177
144
281
254
215
59
96
339
367
182
187
69
314
231
205
130
195
353
197
204
139
56
223
137
239
244
101
46
196
129
35
150
32
153
145
192
148

>  <PUBCHEM_MMFF94_PARTIAL_CHARGES>
23
1 -0.57
10 0.3
11 0.06
12 0.57
13 0.54
14 0.09
15 -0.15
16 0.16
17 -0.15
18 0.41
2 -0.57
29 0.37
3 -0.73
30 0.15
31 0.15
32 0.37
33 0.37
34 0.15
35 0.4
36 0.4
4 -0.8
5 -0.62
6 -0.9

>  <PUBCHEM_EFFECTIVE_ROTOR_COUNT>
8

>  <PUBCHEM_PHARMACOPHORE_FEATURES>
8
1 1 acceptor
1 2 acceptor
1 3 donor
1 4 donor
1 6 donor
3 5 6 18 cation
4 7 8 9 11 hydrophobe
6 5 14 15 16 17 18 rings

>  <PUBCHEM_HEAVY_ATOM_COUNT>
18

>  <PUBCHEM_ATOM_DEF_STEREO_COUNT>
0

>  <PUBCHEM_ATOM_UDEF_STEREO_COUNT>
0

>  <PUBCHEM_BOND_DEF_STEREO_COUNT>
0

>  <PUBCHEM_BOND_UDEF_STEREO_COUNT>
0

>  <PUBCHEM_ISOTOPIC_ATOM_COUNT>
0

>  <PUBCHEM_COMPONENT_COUNT>
1

>  <PUBCHEM_CACTVS_TAUTO_COUNT>
-1

>  <PUBCHEM_CONFORMER_ID>
08863B5100000001

>  <PUBCHEM_MMFF94_ENERGY>
36.98

>  <PUBCHEM_FEATURE_SELFOVERLAP>
40.596

>  <PUBCHEM_SHAPE_FINGERPRINT>
11796584 16 18116420449814634248
12107183 9 18341907247385022433
12596602 18 16845012415624471771
12633257 1 16343697772704958173
13103583 49 17988093218369832081
13402501 40 18408886226424468139
13464513 79 18334855047684738096
13533116 47 18270119158001556753
13551218 46 18412826915269892911
13955234 65 18196371643918829048
14123255 352 9799684909271171045
14123256 34 18336273365944891183
1420 369 18408886248104435325
14251731 5 18410573950791862325
14251740 57 18339079410282585859
14251751 18 18412826889357294059
14251764 30 18410012096203177730
14252887 29 18336260253721057449
14528608 73 8142087537914579827
15342816 4 17676759895131419200
15352361 1 18408603673605677335
193927 3 17968100845728766985
20261772 1 18131062753567519710
20281475 54 18410297977811208876
20388580 30 17894354405614164821
20403669 9 18334577945111523699
20621476 21 18127700331468033662
20645477 70 17969497302884757141
21401589 2 11095877199020799133
221490 88 18269266873291971812
22620623 9 16951110782500642045
270888 7 9943803383086984415
3014063 24 18271518806302651063
316301 35 18408598150198925490
3421961 26 18339641251913178001
5104073 3 18200584783993057168
5207 123 18333446569606623701
5352402 22 18131072601869247036
59682541 52 13046210642184850896
636775 8 18055643820495587798
7062679 13 18335135345798477962
7970288 3 18335980956525036691
8217 86 18338525144984977158

>  <PUBCHEM_SHAPE_MULTIPOLES>
338.77
14.05
2.94
0.94
13.28
0.09
-0.1
-13.63
-2.61
-0.24
0.31
0.22
0.2
0.95

>  <PUBCHEM_SHAPE_SELFOVERLAP>
681.991

>  <PUBCHEM_SHAPE_VOLUME>
196.5

>  <PUBCHEM_COORDINATE_TYPE>
2
5
10

$$$$
