143014719
 OpenBabel01182520543D

 22 22  0  0  0  0  0  0  0  0999 V2000
   -1.6912    1.7187    0.4124 O   0  0  0  0  0  0  0  0  0  0  0  0
   -2.1854   -0.3920   -0.4151 N   0  0  0  0  0  0  0  0  0  0  0  0
    2.4037    1.0225   -0.1176 N   0  0  0  0  0  0  0  0  0  0  0  0
   -3.5493   -0.1423   -0.4493 N   0  0  0  0  0  0  0  0  0  0  0  0
    4.1694   -0.5741   -0.0163 N   0  0  0  0  0  0  0  0  0  0  0  0
    0.1106    0.2695    0.0227 C   0  0  0  0  0  0  0  0  0  0  0  0
    0.5423   -1.0474    0.1364 C   0  0  0  0  0  0  0  0  0  0  0  0
   -1.3042    0.5974    0.0331 C   0  0  0  0  0  0  0  0  0  0  0  0
    1.0727    1.2588   -0.1009 C   0  0  0  0  0  0  0  0  0  0  0  0
    1.9036   -1.3305    0.1234 C   0  0  0  0  0  0  0  0  0  0  0  0
    2.7855   -0.2695   -0.0047 C   0  0  0  0  0  0  0  0  0  0  0  0
   -4.2577   -1.1112    0.3759 C   0  0  0  0  0  0  0  0  0  0  0  0
   -0.1492   -1.8753    0.2617 H   0  0  0  0  0  0  0  0  0  0  0  0
    0.8049    2.3067   -0.1976 H   0  0  0  0  0  0  0  0  0  0  0  0
    2.2483   -2.3552    0.2167 H   0  0  0  0  0  0  0  0  0  0  0  0
   -1.8701   -1.2825   -0.7866 H   0  0  0  0  0  0  0  0  0  0  0  0
   -3.8442   -0.2460   -1.4196 H   0  0  0  0  0  0  0  0  0  0  0  0
   -3.9485   -1.0374    1.4240 H   0  0  0  0  0  0  0  0  0  0  0  0
   -4.0900   -2.1361    0.0276 H   0  0  0  0  0  0  0  0  0  0  0  0
   -5.3328   -0.9114    0.3328 H   0  0  0  0  0  0  0  0  0  0  0  0
    4.4847   -1.4017    0.4745 H   0  0  0  0  0  0  0  0  0  0  0  0
    4.8103    0.2048   -0.1039 H   0  0  0  0  0  0  0  0  0  0  0  0
  1  8  2  0  0  0  0
  2  4  1  0  0  0  0
  2  8  1  0  0  0  0
  2 16  1  0  0  0  0
  3  9  1  0  0  0  0
  3 11  2  0  0  0  0
  4 12  1  0  0  0  0
  4 17  1  0  0  0  0
  5 11  1  0  0  0  0
  5 21  1  0  0  0  0
  5 22  1  0  0  0  0
  6  7  1  0  0  0  0
  6  8  1  0  0  0  0
  6  9  2  0  0  0  0
  7 10  2  0  0  0  0
  7 13  1  0  0  0  0
  9 14  1  0  0  0  0
 10 11  1  0  0  0  0
 10 15  1  0  0  0  0
 12 18  1  0  0  0  0
 12 19  1  0  0  0  0
 12 20  1  0  0  0  0
M  END
>  <PUBCHEM_COMPOUND_CID>
143014719

>  <PUBCHEM_CONFORMER_RMSD>
0.6

>  <PUBCHEM_CONFORMER_DIVERSEORDER>
2
5
4
6
1
3

>  <PUBCHEM_MMFF94_PARTIAL_CHARGES>
19
1 -0.57
10 -0.15
11 0.41
12 0.27
13 0.15
14 0.15
15 0.15
16 0.37
17 0.36
2 -0.42
21 0.4
22 0.4
3 -0.62
4 -0.64
5 -0.9
6 0.09
7 -0.15
8 0.54
9 0.16

>  <PUBCHEM_EFFECTIVE_ROTOR_COUNT>
3

>  <PUBCHEM_PHARMACOPHORE_FEATURES>
6
1 1 acceptor
1 2 donor
1 4 donor
1 5 donor
3 3 5 11 cation
6 3 6 7 9 10 11 rings

>  <PUBCHEM_HEAVY_ATOM_COUNT>
12

>  <PUBCHEM_ATOM_DEF_STEREO_COUNT>
0

>  <PUBCHEM_ATOM_UDEF_STEREO_COUNT>
0

>  <PUBCHEM_BOND_DEF_STEREO_COUNT>
0

>  <PUBCHEM_BOND_UDEF_STEREO_COUNT>
0

>  <PUBCHEM_ISOTOPIC_ATOM_COUNT>
0

>  <PUBCHEM_COMPONENT_COUNT>
1

>  <PUBCHEM_CACTVS_TAUTO_COUNT>
-1

>  <PUBCHEM_CONFORMER_ID>
08863B3F00000002

>  <PUBCHEM_MMFF94_ENERGY>
35.3107

>  <PUBCHEM_FEATURE_SELFOVERLAP>
31.928

>  <PUBCHEM_SHAPE_FINGERPRINT>
11062470 55 11963389643641471718
11806522 49 18408885148397778126
12032990 46 18411985728391498782
12932764 1 16916770860594331870
13690532 89 18334293146025278706
14252887 29 17988933261974463894
14325111 11 18410855451665081108
15477762 27 18408604764321726694
15757776 16 18186795864123910330
16945 1 18411705395812622878
200 152 18342450439908035223
20201158 50 18333450949967019123
20645477 70 18410566272060672599
20871998 22 18200603488032350790
21501925 9 18337099103883339882
23402539 116 18340759394892462159
23402655 69 18408880716107560557
25610 137 18409732902080597241
3312278 4 18409446960538138019
8809292 202 18114749342580581387

>  <PUBCHEM_SHAPE_MULTIPOLES>
221.16
6.67
1.46
0.63
3.24
0.21
-0.01
-2.26
-0.01
0.04
-0.13
0.14
-0.01
-0.03

>  <PUBCHEM_SHAPE_SELFOVERLAP>
453.42

>  <PUBCHEM_SHAPE_VOLUME>
127.4

>  <PUBCHEM_COORDINATE_TYPE>
2
5
10

$$$$
