143224774
 OpenBabel01182520543D

 24 24  0  0  0  0  0  0  0  0999 V2000
    5.0612    0.6682   -0.9545 S   0  0  0  0  0  0  0  0  0  0  0  0
   -3.9637   -1.1968   -0.2620 O   0  0  0  0  0  0  0  0  0  0  0  0
    2.1842    0.3074    0.2899 N   0  0  0  0  0  0  0  0  0  0  0  0
    0.0393    1.3440    0.2526 N   0  0  0  0  0  0  0  0  0  0  0  0
   -4.1082    1.0821   -0.0530 N   0  0  0  0  0  0  0  0  0  0  0  0
    3.0403   -0.8322    0.2299 C   0  0  0  0  0  0  0  0  0  0  0  0
    0.7744    0.2114    0.1852 C   0  0  0  0  0  0  0  0  0  0  0  0
    4.5039   -0.4360    0.3796 C   0  0  0  0  0  0  0  0  0  0  0  0
    0.2355   -1.0542    0.0185 C   0  0  0  0  0  0  0  0  0  0  0  0
   -1.9366   -0.0221   -0.0210 C   0  0  0  0  0  0  0  0  0  0  0  0
   -1.1467   -1.1646   -0.0858 C   0  0  0  0  0  0  0  0  0  0  0  0
   -1.3006    1.1973    0.1475 C   0  0  0  0  0  0  0  0  0  0  0  0
   -3.3828   -0.1044   -0.1267 C   0  0  0  0  0  0  0  0  0  0  0  0
    2.8050   -1.5277    1.0451 H   0  0  0  0  0  0  0  0  0  0  0  0
    2.9160   -1.3699   -0.7189 H   0  0  0  0  0  0  0  0  0  0  0  0
    2.5674    1.2380    0.4094 H   0  0  0  0  0  0  0  0  0  0  0  0
    4.6670    0.0772    1.3333 H   0  0  0  0  0  0  0  0  0  0  0  0
    5.1351   -1.3303    0.3690 H   0  0  0  0  0  0  0  0  0  0  0  0
    0.8202   -1.9648   -0.0354 H   0  0  0  0  0  0  0  0  0  0  0  0
   -1.5871   -2.1493   -0.2170 H   0  0  0  0  0  0  0  0  0  0  0  0
   -1.8167    2.1468    0.2111 H   0  0  0  0  0  0  0  0  0  0  0  0
    6.3251    0.7983   -0.5255 H   0  0  0  0  0  0  0  0  0  0  0  0
   -3.7137    2.0072    0.0608 H   0  0  0  0  0  0  0  0  0  0  0  0
   -5.1210    1.0527   -0.1172 H   0  0  0  0  0  0  0  0  0  0  0  0
  1  8  1  0  0  0  0
  1 22  1  0  0  0  0
  2 13  2  0  0  0  0
  3  6  1  0  0  0  0
  3  7  1  0  0  0  0
  3 16  1  0  0  0  0
  4  7  2  0  0  0  0
  4 12  1  0  0  0  0
  5 13  1  0  0  0  0
  5 23  1  0  0  0  0
  5 24  1  0  0  0  0
  6  8  1  0  0  0  0
  6 14  1  0  0  0  0
  6 15  1  0  0  0  0
  7  9  1  0  0  0  0
  8 17  1  0  0  0  0
  8 18  1  0  0  0  0
  9 11  2  0  0  0  0
  9 19  1  0  0  0  0
 10 11  1  0  0  0  0
 10 12  2  0  0  0  0
 10 13  1  0  0  0  0
 11 20  1  0  0  0  0
 12 21  1  0  0  0  0
M  END
>  <PUBCHEM_COMPOUND_CID>
143224774

>  <PUBCHEM_CONFORMER_RMSD>
0.6

>  <PUBCHEM_CONFORMER_DIVERSEORDER>
2
17
26
14
23
9
15
21
11
22
24
7
13
16
12
27
5
20
10
31
25
28
3
19
32
1
18
4
29
6
30
8

>  <PUBCHEM_MMFF94_PARTIAL_CHARGES>
20
1 -0.41
10 0.09
11 -0.15
12 0.16
13 0.54
16 0.4
19 0.15
2 -0.57
20 0.15
21 0.15
22 0.18
23 0.37
24 0.37
3 -0.87
4 -0.62
5 -0.8
6 0.37
7 0.41
8 0.23
9 -0.15

>  <PUBCHEM_EFFECTIVE_ROTOR_COUNT>
4

>  <PUBCHEM_PHARMACOPHORE_FEATURES>
5
1 2 acceptor
1 3 donor
1 5 donor
3 3 4 7 cation
6 4 7 9 10 11 12 rings

>  <PUBCHEM_HEAVY_ATOM_COUNT>
13

>  <PUBCHEM_ATOM_DEF_STEREO_COUNT>
0

>  <PUBCHEM_ATOM_UDEF_STEREO_COUNT>
0

>  <PUBCHEM_BOND_DEF_STEREO_COUNT>
0

>  <PUBCHEM_BOND_UDEF_STEREO_COUNT>
0

>  <PUBCHEM_ISOTOPIC_ATOM_COUNT>
0

>  <PUBCHEM_COMPONENT_COUNT>
1

>  <PUBCHEM_CACTVS_TAUTO_COUNT>
-1

>  <PUBCHEM_CONFORMER_ID>
08896FC600000002

>  <PUBCHEM_MMFF94_ENERGY>
40.8539

>  <PUBCHEM_FEATURE_SELFOVERLAP>
25.372

>  <PUBCHEM_SHAPE_FINGERPRINT>
11062470 55 17676206862119931442
11401426 45 18341887481132596633
12032990 46 18413388760952333027
13690532 89 18408882932257982938
13760787 5 18113896039709980806
14123238 8 17821729455239109254
14325111 11 18412259549688826825
14911166 2 18412258450156061157
14943859 89 14562529591704582384
14993402 34 18409445903432870764
15536298 74 18200590427485358872
17834072 33 18335702788487858702
20645476 183 18114472265687188054
20645477 70 18334575690633878146
22485316 2 18412258419954334778
23402539 116 18272079491958532902
23402655 69 18411696547942707413
23532345 42 18341319085176611536
23559900 14 18343018887873347450
474 4 17168716370321020164
4990 188 17989494013352665390
537710 114 18408608071821175412

>  <PUBCHEM_SHAPE_MULTIPOLES>
250.57
9.3
1.31
0.72
5.96
0.05
-0.07
0.57
-1.61
-0.44
-0.01
0.47
0.04
-0.52

>  <PUBCHEM_SHAPE_SELFOVERLAP>
501.44

>  <PUBCHEM_SHAPE_VOLUME>
150.5

>  <PUBCHEM_COORDINATE_TYPE>
2
5
10

$$$$
