143224743
 OpenBabel01182520543D

 24 24  0  0  0  0  0  0  0  0999 V2000
   -4.0183   -0.4280   -0.8908 S   0  0  0  0  0  0  0  0  0  0  0  0
    0.6451   -2.4449    1.2248 O   0  0  0  0  0  0  0  0  0  0  0  0
   -1.1557    0.2619    0.2425 N   0  0  0  0  0  0  0  0  0  0  0  0
    0.5625    1.8753   -0.0137 N   0  0  0  0  0  0  0  0  0  0  0  0
    0.4073   -2.5401   -1.0540 N   0  0  0  0  0  0  0  0  0  0  0  0
   -2.1673    1.2650    0.3117 C   0  0  0  0  0  0  0  0  0  0  0  0
    0.2182    0.5712    0.0799 C   0  0  0  0  0  0  0  0  0  0  0  0
    1.1238   -0.4760    0.0241 C   0  0  0  0  0  0  0  0  0  0  0  0
   -3.5484    0.6491    0.4981 C   0  0  0  0  0  0  0  0  0  0  0  0
    2.4693   -0.1650   -0.1382 C   0  0  0  0  0  0  0  0  0  0  0  0
    2.8625    1.1650   -0.2382 C   0  0  0  0  0  0  0  0  0  0  0  0
    0.7218   -1.8723    0.1247 C   0  0  0  0  0  0  0  0  0  0  0  0
    1.8791    2.1389   -0.1708 C   0  0  0  0  0  0  0  0  0  0  0  0
   -1.9725    1.9307    1.1614 H   0  0  0  0  0  0  0  0  0  0  0  0
   -2.1587    1.8850   -0.5937 H   0  0  0  0  0  0  0  0  0  0  0  0
   -1.4410   -0.6726   -0.0316 H   0  0  0  0  0  0  0  0  0  0  0  0
   -3.5806    0.0510    1.4151 H   0  0  0  0  0  0  0  0  0  0  0  0
   -4.2999    1.4398    0.5874 H   0  0  0  0  0  0  0  0  0  0  0  0
    3.2201   -0.9492   -0.1883 H   0  0  0  0  0  0  0  0  0  0  0  0
    3.9056    1.4310   -0.3652 H   0  0  0  0  0  0  0  0  0  0  0  0
    2.1335    3.1911   -0.2439 H   0  0  0  0  0  0  0  0  0  0  0  0
   -5.2234   -0.7728   -0.4142 H   0  0  0  0  0  0  0  0  0  0  0  0
    0.4565   -2.0861   -1.9606 H   0  0  0  0  0  0  0  0  0  0  0  0
    0.1151   -3.5116   -1.0414 H   0  0  0  0  0  0  0  0  0  0  0  0
  1  9  1  0  0  0  0
  1 22  1  0  0  0  0
  2 12  2  0  0  0  0
  3  6  1  0  0  0  0
  3  7  1  0  0  0  0
  3 16  1  0  0  0  0
  4  7  1  0  0  0  0
  4 13  2  0  0  0  0
  5 12  1  0  0  0  0
  5 23  1  0  0  0  0
  5 24  1  0  0  0  0
  6  9  1  0  0  0  0
  6 14  1  0  0  0  0
  6 15  1  0  0  0  0
  7  8  2  0  0  0  0
  8 10  1  0  0  0  0
  8 12  1  0  0  0  0
  9 17  1  0  0  0  0
  9 18  1  0  0  0  0
 10 11  2  0  0  0  0
 10 19  1  0  0  0  0
 11 13  1  0  0  0  0
 11 20  1  0  0  0  0
 13 21  1  0  0  0  0
M  END
>  <PUBCHEM_COMPOUND_CID>
143224743

>  <PUBCHEM_CONFORMER_RMSD>
0.6

>  <PUBCHEM_CONFORMER_DIVERSEORDER>
1
30
19
14
32
10
22
11
28
20
18
31
8
21
29
16
12
9
15
27
23
6
5
13
24
25
26
3
7
4
17
2

>  <PUBCHEM_MMFF94_PARTIAL_CHARGES>
20
1 -0.41
10 -0.15
11 -0.15
12 0.54
13 0.16
16 0.4
19 0.15
2 -0.57
20 0.15
21 0.15
22 0.18
23 0.37
24 0.37
3 -0.87
4 -0.62
5 -0.8
6 0.37
7 0.41
8 0.09
9 0.23

>  <PUBCHEM_EFFECTIVE_ROTOR_COUNT>
4

>  <PUBCHEM_PHARMACOPHORE_FEATURES>
6
1 2 acceptor
1 3 cation
1 3 donor
1 4 acceptor
1 5 donor
6 4 7 8 10 11 13 rings

>  <PUBCHEM_HEAVY_ATOM_COUNT>
13

>  <PUBCHEM_ATOM_DEF_STEREO_COUNT>
0

>  <PUBCHEM_ATOM_UDEF_STEREO_COUNT>
0

>  <PUBCHEM_BOND_DEF_STEREO_COUNT>
0

>  <PUBCHEM_BOND_UDEF_STEREO_COUNT>
0

>  <PUBCHEM_ISOTOPIC_ATOM_COUNT>
0

>  <PUBCHEM_COMPONENT_COUNT>
1

>  <PUBCHEM_CACTVS_TAUTO_COUNT>
-1

>  <PUBCHEM_CONFORMER_ID>
08896FA700000001

>  <PUBCHEM_MMFF94_ENERGY>
45.3905

>  <PUBCHEM_FEATURE_SELFOVERLAP>
30.446

>  <PUBCHEM_SHAPE_FINGERPRINT>
1 1 18408606959007797428
13380535 76 18409168852288416235
14251717 144 18410569591727052549
15757776 16 18336822009572810903
16945 1 18187649076520167680
17990270 104 18124880058119367047
19021347 11 18409728452288548891
193761 8 17618227646887539312
20645477 70 18339357466781482911
20871998 22 17764595313160159234
21499 59 18336265759742303069
21524375 3 18337952397725856460
23402655 69 18412261714627215933
23530152 11 18340210790145692111
23598291 2 18056764230768547701
257057 1 17540520328050404203
2748010 2 18192728944725849160
2871803 45 18338508759758699703
3060560 45 18408881866895194813
581208 293 18410852166099547681
7364860 26 18270685242568908401
81228 2 17472695205291943817
81539 233 18259703402119437085

>  <PUBCHEM_SHAPE_MULTIPOLES>
250.57
5.34
2.57
0.87
6.01
1.28
-0.01
-1.61
-0.87
-1.27
0.05
0.29
0.37
-0.51

>  <PUBCHEM_SHAPE_SELFOVERLAP>
501.101

>  <PUBCHEM_SHAPE_VOLUME>
149.9

>  <PUBCHEM_COORDINATE_TYPE>
2
5
10

$$$$
