143296980
 OpenBabel01182520543D

 42 43  0  0  0  0  0  0  0  0999 V2000
   -2.2941    2.8142   -0.4455 O   0  0  0  0  0  0  0  0  0  0  0  0
   -0.1491   -0.3947    1.0526 N   0  0  0  0  0  0  0  0  0  0  0  0
   -0.1130    2.2062   -0.3289 N   0  0  0  0  0  0  0  0  0  0  0  0
    2.2523   -0.3319    0.7409 N   0  0  0  0  0  0  0  0  0  0  0  0
   -1.9463   -1.7724    0.2931 N   0  0  0  0  0  0  0  0  0  0  0  0
    3.8853   -1.8075   -0.2737 N   0  0  0  0  0  0  0  0  0  0  0  0
    1.0017    0.2333    0.5459 C   0  0  0  0  0  0  0  0  0  0  0  0
    0.9990    1.4334   -0.0875 C   0  0  0  0  0  0  0  0  0  0  0  0
   -1.3457   -0.5429    0.3090 C   0  0  0  0  0  0  0  0  0  0  0  0
   -0.0517   -1.3472    2.1679 C   0  0  0  0  0  0  0  0  0  0  0  0
   -1.9282    0.5167   -0.3847 C   0  0  0  0  0  0  0  0  0  0  0  0
    2.2698    2.1360   -0.5273 C   0  0  0  0  0  0  0  0  0  0  0  0
   -1.4557    1.9144   -0.3544 C   0  0  0  0  0  0  0  0  0  0  0  0
   -0.8565   -0.8483    3.3525 C   0  0  0  0  0  0  0  0  0  0  0  0
   -3.1111    0.2874   -1.1117 C   0  0  0  0  0  0  0  0  0  0  0  0
    2.7919    3.0443    0.5598 C   0  0  0  0  0  0  0  0  0  0  0  0
    2.7022   -1.1061   -0.1856 C   0  0  0  0  0  0  0  0  0  0  0  0
   -3.6958   -0.9678   -1.1391 C   0  0  0  0  0  0  0  0  0  0  0  0
   -3.0791   -1.9599   -0.4173 C   0  0  0  0  0  0  0  0  0  0  0  0
    1.7613   -1.2775   -1.3740 C   0  0  0  0  0  0  0  0  0  0  0  0
    2.3629   -2.2298   -2.3921 C   0  0  0  0  0  0  0  0  0  0  0  0
   -0.3349   -2.3703    1.8931 H   0  0  0  0  0  0  0  0  0  0  0  0
    0.9854   -1.4331    2.5159 H   0  0  0  0  0  0  0  0  0  0  0  0
    3.0587    1.4355   -0.8180 H   0  0  0  0  0  0  0  0  0  0  0  0
    2.0782    2.7224   -1.4359 H   0  0  0  0  0  0  0  0  0  0  0  0
    0.0902    3.1768   -0.5588 H   0  0  0  0  0  0  0  0  0  0  0  0
   -0.7300   -1.5204    4.2073 H   0  0  0  0  0  0  0  0  0  0  0  0
   -1.9256   -0.7971    3.1223 H   0  0  0  0  0  0  0  0  0  0  0  0
   -0.5314    0.1525    3.6565 H   0  0  0  0  0  0  0  0  0  0  0  0
   -3.5929    1.0891   -1.6673 H   0  0  0  0  0  0  0  0  0  0  0  0
    2.0615    3.8148    0.8293 H   0  0  0  0  0  0  0  0  0  0  0  0
    3.7002    3.5538    0.2215 H   0  0  0  0  0  0  0  0  0  0  0  0
    3.0437    2.4843    1.4667 H   0  0  0  0  0  0  0  0  0  0  0  0
   -4.6051   -1.1542   -1.6974 H   0  0  0  0  0  0  0  0  0  0  0  0
   -3.4848   -2.9652   -0.3844 H   0  0  0  0  0  0  0  0  0  0  0  0
    1.5822   -0.3320   -1.8922 H   0  0  0  0  0  0  0  0  0  0  0  0
    0.8145   -1.7221   -1.0564 H   0  0  0  0  0  0  0  0  0  0  0  0
    2.5271   -3.2323   -1.9821 H   0  0  0  0  0  0  0  0  0  0  0  0
    3.2937   -1.8456   -2.8235 H   0  0  0  0  0  0  0  0  0  0  0  0
    1.6622   -2.3490   -3.2272 H   0  0  0  0  0  0  0  0  0  0  0  0
    4.1775   -2.3960   -1.0421 H   0  0  0  0  0  0  0  0  0  0  0  0
    4.5538   -1.7404    0.4876 H   0  0  0  0  0  0  0  0  0  0  0  0
  1 13  2  0  0  0  0
  2  7  1  0  0  0  0
  2  9  1  0  0  0  0
  2 10  1  0  0  0  0
  3  8  1  0  0  0  0
  3 13  1  0  0  0  0
  3 26  1  0  0  0  0
  4  7  1  0  0  0  0
  4 17  2  0  0  0  0
  5  9  1  0  0  0  0
  5 19  2  0  0  0  0
  6 17  1  0  0  0  0
  6 41  1  0  0  0  0
  6 42  1  0  0  0  0
  7  8  2  0  0  0  0
  8 12  1  0  0  0  0
  9 11  2  0  0  0  0
 10 14  1  0  0  0  0
 10 22  1  0  0  0  0
 10 23  1  0  0  0  0
 11 13  1  0  0  0  0
 11 15  1  0  0  0  0
 12 16  1  0  0  0  0
 12 24  1  0  0  0  0
 12 25  1  0  0  0  0
 14 27  1  0  0  0  0
 14 28  1  0  0  0  0
 14 29  1  0  0  0  0
 15 18  2  0  0  0  0
 15 30  1  0  0  0  0
 16 31  1  0  0  0  0
 16 32  1  0  0  0  0
 16 33  1  0  0  0  0
 17 20  1  0  0  0  0
 18 19  1  0  0  0  0
 18 34  1  0  0  0  0
 19 35  1  0  0  0  0
 20 21  1  0  0  0  0
 20 36  1  0  0  0  0
 20 37  1  0  0  0  0
 21 38  1  0  0  0  0
 21 39  1  0  0  0  0
 21 40  1  0  0  0  0
M  END
>  <PUBCHEM_COMPOUND_CID>
143296980

>  <PUBCHEM_CONFORMER_RMSD>
0.6

>  <PUBCHEM_CONFORMER_DIVERSEORDER>
1
6
9
8
4
7
5
10
2
3
11

>  <PUBCHEM_MMFF94_PARTIAL_CHARGES>
24
1 -0.57
10 0.37
11 0.09
12 0.14
13 0.54
15 -0.15
17 0.44
18 -0.15
19 0.16
2 -0.57
20 0.06
26 0.37
3 -0.54
30 0.15
34 0.15
35 0.15
4 -0.62
41 0.4
42 0.4
5 -0.62
6 -0.85
7 0.27
8 -0.03
9 0.41

>  <PUBCHEM_EFFECTIVE_ROTOR_COUNT>
4.4

>  <PUBCHEM_PHARMACOPHORE_FEATURES>
10
1 1 acceptor
1 16 hydrophobe
1 2 cation
1 21 hydrophobe
1 3 donor
1 5 acceptor
1 6 donor
3 4 6 17 cation
6 5 9 11 15 18 19 rings
7 2 3 7 8 9 11 13 rings

>  <PUBCHEM_HEAVY_ATOM_COUNT>
21

>  <PUBCHEM_ATOM_DEF_STEREO_COUNT>
0

>  <PUBCHEM_ATOM_UDEF_STEREO_COUNT>
0

>  <PUBCHEM_BOND_DEF_STEREO_COUNT>
1

>  <PUBCHEM_BOND_UDEF_STEREO_COUNT>
0

>  <PUBCHEM_ISOTOPIC_ATOM_COUNT>
0

>  <PUBCHEM_COMPONENT_COUNT>
1

>  <PUBCHEM_CACTVS_TAUTO_COUNT>
-1

>  <PUBCHEM_CONFORMER_ID>
088A89D400000001

>  <PUBCHEM_MMFF94_ENERGY>
101.2687

>  <PUBCHEM_FEATURE_SELFOVERLAP>
50.754

>  <PUBCHEM_SHAPE_FINGERPRINT>
10863032 1 18270396234398850389
10906281 52 17826522350979286045
11640471 11 14635715379156692502
116883 192 18342737382256950637
12293681 25 17607817397639122010
12592029 89 18197495349660950056
13140716 1 18260821618562038953
13544592 271 17756421921723893553
14790565 3 17620200828068299948
16945 1 18262791874410374721
18186145 218 17676757747615758943
18981168 100 16299253321955087124
19591789 44 17260753941270741517
20511035 2 16599559879238938389
20600515 1 17619023332344128640
20645476 183 16882201021111143686
20645477 70 18267849740021092079
20691752 17 17385997382228953581
20905425 154 18263628722928850469
21501502 16 18412830187322906965
22112679 90 17683495378597685515
22802520 49 18410862070278100097
2334 1 18115300210838263585
23402539 116 18121490264087477438
23557571 272 18200026223353741350
23558518 356 18333452040751867365
23559900 14 18339908369082879800
23566358 2 18263342807462462501
2748010 2 17969512682450110992
298252 57 17832430791416826601
3060560 45 17689138025270099293
34934 24 18121479509431281133
5262128 65 18410572890035121741
568465 68 16987129679361440534
5845 1 17984449368047002162
59554788 281 17096346475482183505
7364860 26 18342733061541248348
81228 2 17617962239926529096
9709674 26 18410847789358931853
9981440 41 17901095631969228832

>  <PUBCHEM_SHAPE_MULTIPOLES>
401.4
5.43
3.14
2.09
0.56
1.62
-1.73
-1.28
2.19
-1.72
0.94
0.2
-1.42
1.12

>  <PUBCHEM_SHAPE_SELFOVERLAP>
843.606

>  <PUBCHEM_SHAPE_VOLUME>
224.2

>  <PUBCHEM_COORDINATE_TYPE>
2
5
10

$$$$
