144069647
 OpenBabel01182520543D

 24 24  0  0  0  0  0  0  0  0999 V2000
   -3.0744   -0.7205   -1.0126 O   0  0  0  0  0  0  0  0  0  0  0  0
    1.1706    0.2157   -0.0454 N   0  3  0  0  0  0  0  0  0  0  0  0
   -0.0349   -1.8342    0.0834 N   0  0  0  0  0  0  0  0  0  0  0  0
    2.4405   -1.7274   -0.4926 N   0  0  0  0  0  0  0  0  0  0  0  0
   -3.0569   -0.5750    1.2758 N   0  0  0  0  0  0  0  0  0  0  0  0
   -0.0054   -0.4250    0.0023 C   0  0  0  0  0  0  0  0  0  0  0  0
   -1.1912    0.2949   -0.0278 C   0  0  0  0  0  0  0  0  0  0  0  0
    1.2575    1.5507   -0.1225 C   0  0  0  0  0  0  0  0  0  0  0  0
   -1.1309    1.6829   -0.1076 C   0  0  0  0  0  0  0  0  0  0  0  0
    2.3895   -0.5244   -0.0155 C   0  0  0  0  0  0  0  0  0  0  0  0
    0.1044    2.3219   -0.1556 C   0  0  0  0  0  0  0  0  0  0  0  0
   -2.4929   -0.3565    0.0233 C   0  0  0  0  0  0  0  0  0  0  0  0
    3.6242    0.0968    0.5948 C   0  0  0  0  0  0  0  0  0  0  0  0
    2.2326    2.0169   -0.1881 H   0  0  0  0  0  0  0  0  0  0  0  0
   -2.0401    2.2781   -0.1347 H   0  0  0  0  0  0  0  0  0  0  0  0
    0.1644    3.4028   -0.2251 H   0  0  0  0  0  0  0  0  0  0  0  0
    4.1309    0.7133   -0.1527 H   0  0  0  0  0  0  0  0  0  0  0  0
    4.3174   -0.6822    0.9259 H   0  0  0  0  0  0  0  0  0  0  0  0
    3.3586    0.7054    1.4632 H   0  0  0  0  0  0  0  0  0  0  0  0
   -0.8544   -2.2727    0.4857 H   0  0  0  0  0  0  0  0  0  0  0  0
    0.8224   -2.3662    0.1133 H   0  0  0  0  0  0  0  0  0  0  0  0
    3.3827   -2.1186   -0.3929 H   0  0  0  0  0  0  0  0  0  0  0  0
   -2.5928   -0.2914    2.1329 H   0  0  0  0  0  0  0  0  0  0  0  0
   -3.9586   -1.0303    1.3699 H   0  0  0  0  0  0  0  0  0  0  0  0
  1 12  2  0  0  0  0
  2  6  1  0  0  0  0
  2  8  2  0  0  0  0
  2 10  1  0  0  0  0
  3  6  1  0  0  0  0
  3 20  1  0  0  0  0
  3 21  1  0  0  0  0
  4 10  2  0  0  0  0
  4 22  1  0  0  0  0
  5 12  1  0  0  0  0
  5 23  1  0  0  0  0
  5 24  1  0  0  0  0
  6  7  2  0  0  0  0
  7  9  1  0  0  0  0
  7 12  1  0  0  0  0
  8 11  1  0  0  0  0
  8 14  1  0  0  0  0
  9 11  2  0  0  0  0
  9 15  1  0  0  0  0
 10 13  1  0  0  0  0
 11 16  1  0  0  0  0
 13 17  1  0  0  0  0
 13 18  1  0  0  0  0
 13 19  1  0  0  0  0
M  CHG  1   2   1
M  END
>  <PUBCHEM_COMPOUND_CID>
144069647

>  <PUBCHEM_CONFORMER_RMSD>
0.6

>  <PUBCHEM_CONFORMER_DIVERSEORDER>
2
6
8
5
3
7
9
1
4

>  <PUBCHEM_MMFF94_PARTIAL_CHARGES>
21
1 -0.57
10 0.78
11 -0.15
12 0.54
13 0.06
14 0.15
15 0.15
16 0.15
2 -0.12
20 0.4
21 0.4
22 0.4
23 0.37
24 0.37
3 -0.9
4 -0.85
5 -0.8
6 0.46
7 0.09
8 0.21
9 -0.15

>  <PUBCHEM_EFFECTIVE_ROTOR_COUNT>
2

>  <PUBCHEM_PHARMACOPHORE_FEATURES>
7
1 1 acceptor
1 3 cation
1 3 donor
1 4 donor
1 5 donor
3 2 4 10 cation
6 2 6 7 8 9 11 rings

>  <PUBCHEM_HEAVY_ATOM_COUNT>
13

>  <PUBCHEM_ATOM_DEF_STEREO_COUNT>
0

>  <PUBCHEM_ATOM_UDEF_STEREO_COUNT>
0

>  <PUBCHEM_BOND_DEF_STEREO_COUNT>
0

>  <PUBCHEM_BOND_UDEF_STEREO_COUNT>
0

>  <PUBCHEM_ISOTOPIC_ATOM_COUNT>
0

>  <PUBCHEM_COMPONENT_COUNT>
1

>  <PUBCHEM_CACTVS_TAUTO_COUNT>
-1

>  <PUBCHEM_CONFORMER_ID>
0896540F00000002

>  <PUBCHEM_MMFF94_ENERGY>
65.7967

>  <PUBCHEM_FEATURE_SELFOVERLAP>
35.576

>  <PUBCHEM_SHAPE_FINGERPRINT>
10219947 1 18412823611917425938
10857977 72 18409721842413183760
11132069 177 18271513282594360720
11206711 2 18262236620896098788
12032990 46 18408892819262265730
12423570 1 17988931054271278261
12524768 44 18337954613738927752
12759256 9 18266461082009032133
14614273 12 17897717656964222157
16945 1 18339646740733228020
193761 8 17689432689668804182
20201158 50 18334852831270688147
20645477 70 18264481966096858223
20871998 184 18199749146070068684
20871998 22 18339934735380597198
21061003 4 18411422808239078577
22802520 49 17911527488960521598
2334 1 18338517422211622886
23388829 49 18341608239354491028
23402539 116 18339625794536499614
23552423 10 18117003186924754086
23559900 14 17334494905498188878
241688 4 18338237042246214912
2748010 2 18267300928783400220
5084963 1 18202559587979546499
53812654 25 18129655443071324916
63268167 104 18268708488456152449
81228 2 18118685422177296608

>  <PUBCHEM_SHAPE_MULTIPOLES>
241.74
4.73
2
0.8
0.54
0.7
0.09
-1.69
0.56
0.26
-0.2
-0.36
-0.12
0.18

>  <PUBCHEM_SHAPE_SELFOVERLAP>
507.336

>  <PUBCHEM_SHAPE_VOLUME>
137

>  <PUBCHEM_COORDINATE_TYPE>
2
5
10

$$$$
