144081107
 OpenBabel01182520543D

 27 27  0  0  0  0  0  0  0  0999 V2000
    0.4556    1.8919    1.5380 O   0  0  0  0  0  0  0  0  0  0  0  0
    1.7755   -1.5717   -1.3864 O   0  0  0  0  0  0  0  0  0  0  0  0
   -2.9332   -0.3079   -0.3985 N   0  0  0  0  0  0  0  0  0  0  0  0
    1.1122    1.6906   -0.6768 N   0  0  0  0  0  0  0  0  0  0  0  0
   -2.3004    1.9751   -0.4292 N   0  0  0  0  0  0  0  0  0  0  0  0
    3.3144   -1.2004    0.2798 N   0  0  0  0  0  0  0  0  0  0  0  0
   -0.3669   -1.0178    0.4526 C   0  0  0  0  0  0  0  0  0  0  0  0
   -0.6827    0.3172    0.2255 C   0  0  0  0  0  0  0  0  0  0  0  0
    0.9954   -1.4283    0.9068 C   0  0  0  0  0  0  0  0  0  0  0  0
   -1.9683    0.6170   -0.1954 C   0  0  0  0  0  0  0  0  0  0  0  0
   -1.3329   -1.9983    0.2547 C   0  0  0  0  0  0  0  0  0  0  0  0
    0.3200    1.3582    0.4255 C   0  0  0  0  0  0  0  0  0  0  0  0
   -2.5894   -1.5949   -0.1675 C   0  0  0  0  0  0  0  0  0  0  0  0
    2.0384   -1.4138   -0.1976 C   0  0  0  0  0  0  0  0  0  0  0  0
    2.1621    2.6829   -0.6314 C   0  0  0  0  0  0  0  0  0  0  0  0
    1.3157   -0.7935    1.7422 H   0  0  0  0  0  0  0  0  0  0  0  0
    0.9757   -2.4497    1.3093 H   0  0  0  0  0  0  0  0  0  0  0  0
   -1.1244   -3.0500    0.4189 H   0  0  0  0  0  0  0  0  0  0  0  0
   -3.3779   -2.3207   -0.3371 H   0  0  0  0  0  0  0  0  0  0  0  0
    0.9361    1.2289   -1.5645 H   0  0  0  0  0  0  0  0  0  0  0  0
   -1.8402    2.6891    0.1216 H   0  0  0  0  0  0  0  0  0  0  0  0
   -3.2461    2.1610   -0.7409 H   0  0  0  0  0  0  0  0  0  0  0  0
    1.7413    3.6414   -0.9449 H   0  0  0  0  0  0  0  0  0  0  0  0
    2.9510    2.3827   -1.3248 H   0  0  0  0  0  0  0  0  0  0  0  0
    2.5661    2.7710    0.3800 H   0  0  0  0  0  0  0  0  0  0  0  0
    3.5141   -1.0769    1.2672 H   0  0  0  0  0  0  0  0  0  0  0  0
    4.1073   -1.1645   -0.3524 H   0  0  0  0  0  0  0  0  0  0  0  0
  1 12  2  0  0  0  0
  2 14  2  0  0  0  0
  3 10  2  0  0  0  0
  3 13  1  0  0  0  0
  4 12  1  0  0  0  0
  4 15  1  0  0  0  0
  4 20  1  0  0  0  0
  5 10  1  0  0  0  0
  5 21  1  0  0  0  0
  5 22  1  0  0  0  0
  6 14  1  0  0  0  0
  6 26  1  0  0  0  0
  6 27  1  0  0  0  0
  7  8  2  0  0  0  0
  7  9  1  0  0  0  0
  7 11  1  0  0  0  0
  8 10  1  0  0  0  0
  8 12  1  0  0  0  0
  9 14  1  0  0  0  0
  9 16  1  0  0  0  0
  9 17  1  0  0  0  0
 11 13  2  0  0  0  0
 11 18  1  0  0  0  0
 13 19  1  0  0  0  0
 15 23  1  0  0  0  0
 15 24  1  0  0  0  0
 15 25  1  0  0  0  0
M  END
>  <PUBCHEM_COMPOUND_CID>
144081107

>  <PUBCHEM_CONFORMER_RMSD>
0.6

>  <PUBCHEM_CONFORMER_DIVERSEORDER>
1
24
11
20
27
15
28
16
34
22
30
26
32
3
21
12
33
29
25
17
18
31
23
19
8
10
4
2
9
7
5
14
6
13

>  <PUBCHEM_MMFF94_PARTIAL_CHARGES>
22
1 -0.57
10 0.41
11 -0.15
12 0.54
13 0.16
14 0.57
15 0.3
18 0.15
19 0.15
2 -0.57
20 0.37
21 0.4
22 0.4
26 0.37
27 0.37
3 -0.62
4 -0.73
5 -0.9
6 -0.8
7 -0.14
8 0.09
9 0.2

>  <PUBCHEM_EFFECTIVE_ROTOR_COUNT>
4

>  <PUBCHEM_PHARMACOPHORE_FEATURES>
7
1 1 acceptor
1 2 acceptor
1 4 donor
1 5 donor
1 6 donor
3 3 5 10 cation
6 3 7 8 10 11 13 rings

>  <PUBCHEM_HEAVY_ATOM_COUNT>
15

>  <PUBCHEM_ATOM_DEF_STEREO_COUNT>
0

>  <PUBCHEM_ATOM_UDEF_STEREO_COUNT>
0

>  <PUBCHEM_BOND_DEF_STEREO_COUNT>
0

>  <PUBCHEM_BOND_UDEF_STEREO_COUNT>
0

>  <PUBCHEM_ISOTOPIC_ATOM_COUNT>
0

>  <PUBCHEM_COMPONENT_COUNT>
1

>  <PUBCHEM_CACTVS_TAUTO_COUNT>
-1

>  <PUBCHEM_CONFORMER_ID>
089680D300000001

>  <PUBCHEM_MMFF94_ENERGY>
46.0998

>  <PUBCHEM_FEATURE_SELFOVERLAP>
35.522

>  <PUBCHEM_SHAPE_FINGERPRINT>
12423570 1 18058430157972056907
13380535 21 18265905846349527091
13380535 220 18335419036972765797
161256 15 18338515365064959851
16945 1 18261678082143232275
17775402 16 17831006932221898893
193761 8 18408885174220335913
20905425 154 18195530513391383190
21501502 16 18339927129304693831
22802520 49 18262811790289725195
2334 1 18120930870266945187
23402539 116 18124862470307736182
23419403 2 17837162144575341424
23552423 10 18261948647923986699
23557571 272 18200035032469211782
23559900 14 18054217740654666634
2748010 2 18339067190841860587
7364860 26 18271238447157223697
81228 2 18053393093341479466

>  <PUBCHEM_SHAPE_MULTIPOLES>
277.03
3.95
2.92
0.99
0.23
0.8
-0.09
-0.39
0.79
-1.32
0.18
-0.35
0.05
0.05

>  <PUBCHEM_SHAPE_SELFOVERLAP>
576.483

>  <PUBCHEM_SHAPE_VOLUME>
157.2

>  <PUBCHEM_COORDINATE_TYPE>
2
5
10

$$$$
