14416755
 OpenBabel01182520543D

 15 15  0  0  0  0  0  0  0  0999 V2000
   -3.8458    0.5599    0.2424 Cl  0  0  0  0  0  0  0  0  0  0  0  0
   -1.7464   -1.4625   -0.4271 O   0  0  0  0  0  0  0  0  0  0  0  0
    2.3574   -0.9991    0.2599 N   0  0  0  0  0  0  0  0  0  0  0  0
   -2.1321    0.7292    0.2214 N   0  0  0  0  0  0  0  0  0  0  0  0
    0.1308   -0.1098   -0.0500 C   0  0  0  0  0  0  0  0  0  0  0  0
    0.6571    1.1640   -0.2338 C   0  0  0  0  0  0  0  0  0  0  0  0
    1.0155   -1.1484    0.1918 C   0  0  0  0  0  0  0  0  0  0  0  0
   -1.3015   -0.3441   -0.1097 C   0  0  0  0  0  0  0  0  0  0  0  0
    2.0327    1.3575   -0.1711 C   0  0  0  0  0  0  0  0  0  0  0  0
    2.8323    0.2533    0.0763 C   0  0  0  0  0  0  0  0  0  0  0  0
    0.0320    2.0242   -0.4533 H   0  0  0  0  0  0  0  0  0  0  0  0
    0.6717   -2.1665    0.3481 H   0  0  0  0  0  0  0  0  0  0  0  0
    2.4660    2.3404   -0.3173 H   0  0  0  0  0  0  0  0  0  0  0  0
    3.9114    0.3508    0.1334 H   0  0  0  0  0  0  0  0  0  0  0  0
   -1.7669    1.6252    0.5262 H   0  0  0  0  0  0  0  0  0  0  0  0
  1  4  1  0  0  0  0
  2  8  2  0  0  0  0
  3  7  1  0  0  0  0
  3 10  2  0  0  0  0
  4  8  1  0  0  0  0
  4 15  1  0  0  0  0
  5  6  1  0  0  0  0
  5  7  2  0  0  0  0
  5  8  1  0  0  0  0
  6  9  2  0  0  0  0
  6 11  1  0  0  0  0
  7 12  1  0  0  0  0
  9 10  1  0  0  0  0
  9 13  1  0  0  0  0
 10 14  1  0  0  0  0
M  END
>  <PUBCHEM_COMPOUND_CID>
14416755

>  <PUBCHEM_CONFORMER_RMSD>
0.4

>  <PUBCHEM_CONFORMER_DIVERSEORDER>
2
8
15
5
14
3
7
13
16
6
4
11
9
12
1
10

>  <PUBCHEM_MMFF94_PARTIAL_CHARGES>
15
1 -0.06
10 0.16
11 0.15
12 0.15
13 0.15
14 0.15
15 0.37
2 -0.57
3 -0.62
4 -0.37
5 0.09
6 -0.15
7 0.16
8 0.54
9 -0.15

>  <PUBCHEM_EFFECTIVE_ROTOR_COUNT>
2

>  <PUBCHEM_PHARMACOPHORE_FEATURES>
4
1 2 acceptor
1 3 acceptor
1 4 donor
6 3 5 6 7 9 10 rings

>  <PUBCHEM_HEAVY_ATOM_COUNT>
10

>  <PUBCHEM_ATOM_DEF_STEREO_COUNT>
0

>  <PUBCHEM_ATOM_UDEF_STEREO_COUNT>
0

>  <PUBCHEM_BOND_DEF_STEREO_COUNT>
0

>  <PUBCHEM_BOND_UDEF_STEREO_COUNT>
0

>  <PUBCHEM_ISOTOPIC_ATOM_COUNT>
0

>  <PUBCHEM_COMPONENT_COUNT>
1

>  <PUBCHEM_CACTVS_TAUTO_COUNT>
2

>  <PUBCHEM_CONFORMER_ID>
00DBFB7300000002

>  <PUBCHEM_MMFF94_ENERGY>
25.584

>  <PUBCHEM_FEATURE_SELFOVERLAP>
20.297

>  <PUBCHEM_SHAPE_FINGERPRINT>
11062470 55 15410891851432279393
12932764 1 17458615718374848023
14325111 11 18410857659673780225
14897335 6 18341044198679674125
15775835 57 18411706525120262749
16945 1 18337382760502996164
17844478 74 17603589595294397157
20871998 22 17979635637347938146
21040471 1 18192432098498977468
23402655 69 18340759365434443661
23552423 10 18262517108209549086
29004967 10 17749111084432646504
5084963 1 17678445579378824182
528886 8 18410007754085660936

>  <PUBCHEM_SHAPE_MULTIPOLES>
191.83
5.03
1.42
0.64
3.69
0.08
0
-0.89
0.48
-0.32
-0.07
0.04
0
-0.3

>  <PUBCHEM_SHAPE_SELFOVERLAP>
387.964

>  <PUBCHEM_SHAPE_VOLUME>
113

>  <PUBCHEM_COORDINATE_TYPE>
2
5
10

$$$$
