144395811
 OpenBabel01182520543D

 42 43  0  0  0  0  0  0  0  0999 V2000
   -2.6502   -2.3961    0.0038 O   0  0  0  0  0  0  0  0  0  0  0  0
    5.3940   -0.7064    0.0824 N   0  0  0  0  0  0  0  0  0  0  0  0
    2.0090    2.1051   -0.5125 N   0  0  0  0  0  0  0  0  0  0  0  0
    4.2602    2.3249    0.2021 N   0  0  0  0  0  0  0  0  0  0  0  0
   -0.2412    1.8943   -1.2284 N   0  0  0  0  0  0  0  0  0  0  0  0
   -1.4361   -0.4385    0.1983 N   0  0  0  0  0  0  0  0  0  0  0  0
   -0.2612   -1.9793   -1.2113 N   0  0  0  0  0  0  0  0  0  0  0  0
   -6.2808   -0.3747    0.1937 N   0  0  0  0  0  0  0  0  0  0  0  0
    4.3784   -0.3947    1.0875 C   0  0  0  0  0  0  0  0  0  0  0  0
    3.1462    0.2114    0.4702 C   0  0  0  0  0  0  0  0  0  0  0  0
    2.0035   -0.5652    0.3139 C   0  0  0  0  0  0  0  0  0  0  0  0
    0.8635   -0.0082   -0.2551 C   0  0  0  0  0  0  0  0  0  0  0  0
    3.0979    1.5291    0.0446 C   0  0  0  0  0  0  0  0  0  0  0  0
    0.9173    1.3193   -0.6482 C   0  0  0  0  0  0  0  0  0  0  0  0
    6.7183   -0.7775    0.6988 C   0  0  0  0  0  0  0  0  0  0  0  0
    5.0760   -1.9644   -0.5924 C   0  0  0  0  0  0  0  0  0  0  0  0
   -0.3287   -0.8294   -0.4143 C   0  0  0  0  0  0  0  0  0  0  0  0
   -2.5962   -1.1744    0.1096 C   0  0  0  0  0  0  0  0  0  0  0  0
   -3.8632   -0.3945    0.1960 C   0  0  0  0  0  0  0  0  0  0  0  0
   -3.8447    0.9866    0.3561 C   0  0  0  0  0  0  0  0  0  0  0  0
   -5.0962   -1.0223    0.1210 C   0  0  0  0  0  0  0  0  0  0  0  0
   -5.0428    1.6878    0.4351 C   0  0  0  0  0  0  0  0  0  0  0  0
   -6.2231    0.9669    0.3491 C   0  0  0  0  0  0  0  0  0  0  0  0
    4.7616    0.3254    1.8244 H   0  0  0  0  0  0  0  0  0  0  0  0
    4.1199   -1.2800    1.6857 H   0  0  0  0  0  0  0  0  0  0  0  0
    2.0006   -1.6032    0.6387 H   0  0  0  0  0  0  0  0  0  0  0  0
    6.7731   -1.5524    1.4721 H   0  0  0  0  0  0  0  0  0  0  0  0
    7.4838   -0.9890   -0.0562 H   0  0  0  0  0  0  0  0  0  0  0  0
    6.9865    0.1836    1.1517 H   0  0  0  0  0  0  0  0  0  0  0  0
    5.0200   -2.8093    0.1038 H   0  0  0  0  0  0  0  0  0  0  0  0
    5.8402   -2.1961   -1.3435 H   0  0  0  0  0  0  0  0  0  0  0  0
    4.1292   -1.8994   -1.1381 H   0  0  0  0  0  0  0  0  0  0  0  0
    5.1651    1.8772    0.1252 H   0  0  0  0  0  0  0  0  0  0  0  0
    4.1905    3.2864   -0.1090 H   0  0  0  0  0  0  0  0  0  0  0  0
   -0.8678    1.2989   -1.7555 H   0  0  0  0  0  0  0  0  0  0  0  0
   -0.1748    2.8670   -1.5029 H   0  0  0  0  0  0  0  0  0  0  0  0
    0.5992   -2.2482   -1.6776 H   0  0  0  0  0  0  0  0  0  0  0  0
   -1.0689   -2.5737   -1.3593 H   0  0  0  0  0  0  0  0  0  0  0  0
   -2.9174    1.5474    0.4244 H   0  0  0  0  0  0  0  0  0  0  0  0
   -5.1859   -2.0969   -0.0039 H   0  0  0  0  0  0  0  0  0  0  0  0
   -5.0530    2.7645    0.5601 H   0  0  0  0  0  0  0  0  0  0  0  0
   -7.1844    1.4669    0.4052 H   0  0  0  0  0  0  0  0  0  0  0  0
  1 18  2  0  0  0  0
  2  9  1  0  0  0  0
  2 15  1  0  0  0  0
  2 16  1  0  0  0  0
  3 13  2  0  0  0  0
  3 14  1  0  0  0  0
  4 13  1  0  0  0  0
  4 33  1  0  0  0  0
  4 34  1  0  0  0  0
  5 14  1  0  0  0  0
  5 35  1  0  0  0  0
  5 36  1  0  0  0  0
  6 17  2  0  0  0  0
  6 18  1  0  0  0  0
  7 17  1  0  0  0  0
  7 37  1  0  0  0  0
  7 38  1  0  0  0  0
  8 21  1  0  0  0  0
  8 23  2  0  0  0  0
  9 10  1  0  0  0  0
  9 24  1  0  0  0  0
  9 25  1  0  0  0  0
 10 11  2  0  0  0  0
 10 13  1  0  0  0  0
 11 12  1  0  0  0  0
 11 26  1  0  0  0  0
 12 14  2  0  0  0  0
 12 17  1  0  0  0  0
 15 27  1  0  0  0  0
 15 28  1  0  0  0  0
 15 29  1  0  0  0  0
 16 30  1  0  0  0  0
 16 31  1  0  0  0  0
 16 32  1  0  0  0  0
 18 19  1  0  0  0  0
 19 20  1  0  0  0  0
 19 21  2  0  0  0  0
 20 22  2  0  0  0  0
 20 39  1  0  0  0  0
 21 40  1  0  0  0  0
 22 23  1  0  0  0  0
 22 41  1  0  0  0  0
 23 42  1  0  0  0  0
M  END
>  <PUBCHEM_COMPOUND_CID>
144395811

>  <PUBCHEM_CONFORMER_RMSD>
0.8

>  <PUBCHEM_CONFORMER_DIVERSEORDER>
1
79
114
65
32
80
115
100
13
97
116
19
8
87
69
103
60
42
99
86
43
83
104
15
82
119
76
47
54
10
23
92
93
105
30
25
48
85
51
59
44
111
112
6
110
34
66
106
40
118
74
52
11
49
50
16
33
109
108
7
117
71
29
88
46
89
24
63
90
5
27
31
77
45
57
2
113
41
78
14
53
84
18
120
21
4
38
107
26
98
81
12
94
39
9
62
35
20
68
96
73
37
67
101
75
70
28
102
95
36
22
61
58
64
17
72
56
55
3
91

>  <PUBCHEM_MMFF94_PARTIAL_CHARGES>
34
1 -0.57
10 -0.14
11 -0.15
12 0.09
13 0.41
14 0.41
15 0.27
16 0.27
17 0.41
18 0.69
19 0.09
2 -0.81
20 -0.15
21 0.16
22 -0.15
23 0.16
26 0.15
3 -0.62
33 0.4
34 0.4
35 0.4
36 0.4
37 0.4
38 0.4
39 0.15
4 -0.9
40 0.15
41 0.15
42 0.15
5 -0.9
6 -0.66
7 -0.85
8 -0.62
9 0.41

>  <PUBCHEM_EFFECTIVE_ROTOR_COUNT>
5

>  <PUBCHEM_PHARMACOPHORE_FEATURES>
11
1 1 acceptor
1 2 cation
1 4 donor
1 5 cation
1 5 donor
1 6 donor
1 7 donor
1 8 acceptor
3 3 4 13 cation
6 3 10 11 12 13 14 rings
6 8 19 20 21 22 23 rings

>  <PUBCHEM_HEAVY_ATOM_COUNT>
23

>  <PUBCHEM_ATOM_DEF_STEREO_COUNT>
0

>  <PUBCHEM_ATOM_UDEF_STEREO_COUNT>
0

>  <PUBCHEM_BOND_DEF_STEREO_COUNT>
0

>  <PUBCHEM_BOND_UDEF_STEREO_COUNT>
0

>  <PUBCHEM_ISOTOPIC_ATOM_COUNT>
0

>  <PUBCHEM_COMPONENT_COUNT>
1

>  <PUBCHEM_CACTVS_TAUTO_COUNT>
-1

>  <PUBCHEM_CONFORMER_ID>
089B4E2300000001

>  <PUBCHEM_MMFF94_ENERGY>
92.8039

>  <PUBCHEM_FEATURE_SELFOVERLAP>
55.855

>  <PUBCHEM_SHAPE_FINGERPRINT>
11089746 13 18131344219906627665
11140007 195 18272929410779505872
12107183 9 18409727322543429882
12166972 35 18413392059651078329
12236239 1 18410855494735826697
12596602 18 17967814998475323633
13533116 47 18131633383275621042
13583140 156 15697989773720910166
13785724 45 18053387600448189870
14123256 10 9439399138120585298
14251758 9 18342182150148808814
14251764 18 18409166632101514940
14341114 176 18260553367852754065
14739800 52 17914331531353918040
15183329 4 18411990143369822828
15196674 1 18410013264740016465
15256400 18 18340770347043164493
15527383 91 18334574651082363752
15531645 54 18411983533336110858
15537594 2 15791725317278556570
173720 79 12463281463297091052
17492 89 18045788054980675891
1813 80 16877939451649727492
19141452 34 18272082821091469966
19489759 90 17917991668402372595
20567600 75 17203053976331789756
20739085 24 18186523232696002004
21033648 29 17774425153255031475
21054139 6 10519693484428847113
21267235 1 18333736814120445539
21304253 13 18342734127083716504
21315764 268 18411975901612437681
21521721 280 13768222587963461060
21774942 28 16414645826614764913
23402539 116 18343577456849253303
23522609 53 17896908506996696596
23559900 14 18272647943786302402
23569917 315 18272936042289451511
23622692 88 18260547818681427327
2838139 119 17489299764292706769
3004659 81 18408042910028032104
335352 9 18409449180540540094
350125 39 18410292506618784172
4017518 198 17489873726711581318
4073 2 18041846241660369906
4214541 1 18410012148132636315
4325135 7 9439402432429073282
4340502 62 14836405834839247812
4463277 17 18334858321030053220
5104073 3 18335980981756037048
5207 217 10375863091581624946
5385378 56 18058178232702749547
59755656 215 18129948875458943118
6328613 192 18334585667615878292
6913067 236 13614520731718329386
7495541 125 12685091514240187468
9965369 4 18411417285222132027
9971528 1 18186521041993681516
9981440 41 16964078766178538585
9995097 60 18343302543781191806

>  <PUBCHEM_SHAPE_MULTIPOLES>
432.59
15.68
2.25
0.87
2.86
0.34
0.06
-1.2
-3.84
-0.59
0.45
-0.42
0
-0.21

>  <PUBCHEM_SHAPE_SELFOVERLAP>
918.759

>  <PUBCHEM_SHAPE_VOLUME>
239

>  <PUBCHEM_COORDINATE_TYPE>
2
5
10

$$$$
