144395622
 OpenBabel01182520543D

 33 34  0  0  0  0  0  0  0  0999 V2000
   -2.6104   -2.2915    0.5134 O   0  0  0  0  0  0  0  0  0  0  0  0
    4.3712    3.0000    0.0004 O   0  0  0  0  0  0  0  0  0  0  0  0
    3.7138   -1.1752    0.2252 N   0  0  0  0  0  0  0  0  0  0  0  0
   -0.9091   -0.7263    0.4921 N   0  0  0  0  0  0  0  0  0  0  0  0
    2.1584   -2.9608    0.1200 N   0  0  0  0  0  0  0  0  0  0  0  0
   -0.2881   -2.0283   -1.4211 N   0  0  0  0  0  0  0  0  0  0  0  0
    5.2786    0.6030    0.3304 N   0  0  0  0  0  0  0  0  0  0  0  0
   -5.5313    0.6110   -0.0752 N   0  0  0  0  0  0  0  0  0  0  0  0
    1.3772   -0.7054   -0.1797 C   0  0  0  0  0  0  0  0  0  0  0  0
    1.6543    0.6556   -0.2432 C   0  0  0  0  0  0  0  0  0  0  0  0
    2.9599    1.1024   -0.0728 C   0  0  0  0  0  0  0  0  0  0  0  0
    2.4327   -1.5718    0.0547 C   0  0  0  0  0  0  0  0  0  0  0  0
   -0.0345   -1.1776   -0.3645 C   0  0  0  0  0  0  0  0  0  0  0  0
    3.9446    0.1551    0.1568 C   0  0  0  0  0  0  0  0  0  0  0  0
   -3.2214   -0.0449    0.2058 C   0  0  0  0  0  0  0  0  0  0  0  0
   -2.2474   -1.1045    0.3997 C   0  0  0  0  0  0  0  0  0  0  0  0
    3.2401    2.5300   -0.1411 C   0  0  0  0  0  0  0  0  0  0  0  0
   -2.8253    1.2849    0.1177 C   0  0  0  0  0  0  0  0  0  0  0  0
   -4.5742   -0.3268    0.1042 C   0  0  0  0  0  0  0  0  0  0  0  0
   -3.7807    2.2784   -0.0667 C   0  0  0  0  0  0  0  0  0  0  0  0
   -5.1084    1.8926   -0.1562 C   0  0  0  0  0  0  0  0  0  0  0  0
    0.8519    1.3658   -0.4299 H   0  0  0  0  0  0  0  0  0  0  0  0
    1.2529   -3.2608    0.4592 H   0  0  0  0  0  0  0  0  0  0  0  0
    2.9492   -3.5707    0.2888 H   0  0  0  0  0  0  0  0  0  0  0  0
    2.3808    3.1961   -0.3291 H   0  0  0  0  0  0  0  0  0  0  0  0
    0.4476   -2.3288   -2.0522 H   0  0  0  0  0  0  0  0  0  0  0  0
   -1.2209   -2.3804   -1.6066 H   0  0  0  0  0  0  0  0  0  0  0  0
    5.5828    1.4235   -0.1785 H   0  0  0  0  0  0  0  0  0  0  0  0
    5.9714   -0.1146    0.5079 H   0  0  0  0  0  0  0  0  0  0  0  0
   -1.7838    1.5844    0.1893 H   0  0  0  0  0  0  0  0  0  0  0  0
   -4.9553   -1.3417    0.1637 H   0  0  0  0  0  0  0  0  0  0  0  0
   -3.4954    3.3217   -0.1380 H   0  0  0  0  0  0  0  0  0  0  0  0
   -5.8921    2.6290   -0.3000 H   0  0  0  0  0  0  0  0  0  0  0  0
  1 16  2  0  0  0  0
  2 17  2  0  0  0  0
  3 12  1  0  0  0  0
  3 14  2  0  0  0  0
  4 13  2  0  0  0  0
  4 16  1  0  0  0  0
  5 12  1  0  0  0  0
  5 23  1  0  0  0  0
  5 24  1  0  0  0  0
  6 13  1  0  0  0  0
  6 26  1  0  0  0  0
  6 27  1  0  0  0  0
  7 14  1  0  0  0  0
  7 28  1  0  0  0  0
  7 29  1  0  0  0  0
  8 19  1  0  0  0  0
  8 21  2  0  0  0  0
  9 10  1  0  0  0  0
  9 12  2  0  0  0  0
  9 13  1  0  0  0  0
 10 11  2  0  0  0  0
 10 22  1  0  0  0  0
 11 14  1  0  0  0  0
 11 17  1  0  0  0  0
 15 16  1  0  0  0  0
 15 18  1  0  0  0  0
 15 19  2  0  0  0  0
 17 25  1  0  0  0  0
 18 20  2  0  0  0  0
 18 30  1  0  0  0  0
 19 31  1  0  0  0  0
 20 21  1  0  0  0  0
 20 32  1  0  0  0  0
 21 33  1  0  0  0  0
M  END
>  <PUBCHEM_COMPOUND_CID>
144395622

>  <PUBCHEM_CONFORMER_RMSD>
0.6

>  <PUBCHEM_CONFORMER_DIVERSEORDER>
2
66
70
32
95
9
98
60
68
45
14
35
12
99
78
101
86
75
51
21
10
52
82
36
4
103
34
6
61
104
89
49
94
19
24
3
93
79
50
96
53
90
5
73
87
59
58
26
37
100
17
105
64
16
83
11
13
77
91
69
23
74
57
7
39
102
27
88
46
20
38
29
65
18
54
76
92
85
40
72
84
31
22
25
97
44
41
47
15
63
30
33
56
48
8
80
62
1
43
55
71
28
67
42
81

>  <PUBCHEM_MMFF94_PARTIAL_CHARGES>
33
1 -0.57
10 -0.15
11 0.09
12 0.41
13 0.41
14 0.41
15 0.09
16 0.69
17 0.42
18 -0.15
19 0.16
2 -0.57
20 -0.15
21 0.16
22 0.15
23 0.4
24 0.4
25 0.06
26 0.4
27 0.4
28 0.4
29 0.4
3 -0.62
30 0.15
31 0.15
32 0.15
33 0.15
4 -0.66
5 -0.9
6 -0.85
7 -0.9
8 -0.62
9 0.09

>  <PUBCHEM_EFFECTIVE_ROTOR_COUNT>
4

>  <PUBCHEM_PHARMACOPHORE_FEATURES>
11
1 1 acceptor
1 2 acceptor
1 4 donor
1 5 cation
1 5 donor
1 6 donor
1 7 donor
1 8 acceptor
3 3 7 14 cation
6 3 9 10 11 12 14 rings
6 8 15 18 19 20 21 rings

>  <PUBCHEM_HEAVY_ATOM_COUNT>
21

>  <PUBCHEM_ATOM_DEF_STEREO_COUNT>
0

>  <PUBCHEM_ATOM_UDEF_STEREO_COUNT>
0

>  <PUBCHEM_BOND_DEF_STEREO_COUNT>
0

>  <PUBCHEM_BOND_UDEF_STEREO_COUNT>
0

>  <PUBCHEM_ISOTOPIC_ATOM_COUNT>
0

>  <PUBCHEM_COMPONENT_COUNT>
1

>  <PUBCHEM_CACTVS_TAUTO_COUNT>
-1

>  <PUBCHEM_CONFORMER_ID>
089B4D6600000002

>  <PUBCHEM_MMFF94_ENERGY>
86.6609

>  <PUBCHEM_FEATURE_SELFOVERLAP>
55.854

>  <PUBCHEM_SHAPE_FINGERPRINT>
10411042 1 17762055433169757998
11089746 13 18409722967683987774
11595378 159 16660634116561579597
12107183 9 17974561399326852610
12403259 118 18338789130511979898
12403260 363 18268985402367381971
12596602 18 14635167719334785365
12633257 1 17968364689547976440
13583140 156 18115038424060158259
14178342 30 17458917036290916459
14251764 38 18340491050016267329
14251764 75 18269007525365070809
14790565 3 18118411868006646412
15188451 53 16009324218335885363
15196674 1 18410012135195324561
1601671 61 18408325463183874492
17492 89 18410576163281177819
17834072 32 18412829058115493721
20157964 124 18410852127871830815
20645477 56 18260552208296051427
20715895 44 18267582395460898209
20739085 24 18040434425912585676
21033648 144 18334566962806275869
21065198 57 18407762533961945811
21065199 12 18260837028746597227
21315764 268 18188204283080305077
21421861 104 17532643543367190770
21709351 56 18413102879481614854
23227448 37 18412262861340701367
23402539 116 18410285896742990343
23559900 14 18340486642947259490
245318 6 17316777769310292756
2838139 119 18409721851203883797
335352 9 18410293576097172814
351380 180 18409446960306211265
3545911 37 18409452479228325939
4214541 1 18408886226539999561
4325135 7 18343860022900696599
474 4 18408603660340883003
5104073 3 18261398815169693473
6328613 192 18187093884016544980
633830 44 18339358673467158078
7808743 9 18123187081001591424
8272917 22 18411702041454233998
9709674 26 18411144602038883327
9981440 41 18263643029412069259

>  <PUBCHEM_SHAPE_MULTIPOLES>
390.55
11.52
3.01
0.72
4.68
0.48
0.11
6.69
-0.71
-1.55
0.14
0.06
-0.19
0.18

>  <PUBCHEM_SHAPE_SELFOVERLAP>
845.476

>  <PUBCHEM_SHAPE_VOLUME>
210.8

>  <PUBCHEM_COORDINATE_TYPE>
2
5
10

$$$$
