144404811
 OpenBabel01182520543D

 27 27  0  0  0  0  0  0  0  0999 V2000
   -0.8614   -2.2755    0.7145 O   0  0  0  0  0  0  0  0  0  0  0  0
   -3.9824    1.7712    1.4088 O   0  0  0  0  0  0  0  0  0  0  0  0
   -3.7194    1.7691   -0.8465 O   0  0  0  0  0  0  0  0  0  0  0  0
   -1.6309   -0.6421   -0.7418 N   0  0  0  0  0  0  0  0  0  0  0  0
    2.8894   -0.4269    0.9240 N   0  0  0  0  0  0  0  0  0  0  0  0
    4.5677    0.7413   -0.1953 N   0  0  0  0  0  0  0  0  0  0  0  0
   -3.0110   -1.0460   -0.7387 C   0  0  0  0  0  0  0  0  0  0  0  0
   -3.8089   -0.3493    0.3558 C   0  0  0  0  0  0  0  0  0  0  0  0
    0.7193   -0.7435   -0.0933 C   0  0  0  0  0  0  0  0  0  0  0  0
   -0.6550   -1.3006   -0.0033 C   0  0  0  0  0  0  0  0  0  0  0  0
    1.1363   -0.0414   -1.2188 C   0  0  0  0  0  0  0  0  0  0  0  0
   -3.8251    1.1567    0.2069 C   0  0  0  0  0  0  0  0  0  0  0  0
    1.6259   -0.9074    0.9416 C   0  0  0  0  0  0  0  0  0  0  0  0
    2.4289    0.4681   -1.2741 C   0  0  0  0  0  0  0  0  0  0  0  0
    3.2590    0.2500   -0.1863 C   0  0  0  0  0  0  0  0  0  0  0  0
    4.8674    1.5762    0.7463 C   0  0  0  0  0  0  0  0  0  0  0  0
   -3.4183   -0.8047   -1.7263 H   0  0  0  0  0  0  0  0  0  0  0  0
   -3.0699   -2.1316   -0.6051 H   0  0  0  0  0  0  0  0  0  0  0  0
   -3.3729   -0.5958    1.3314 H   0  0  0  0  0  0  0  0  0  0  0  0
   -4.8469   -0.6975    0.3449 H   0  0  0  0  0  0  0  0  0  0  0  0
   -1.4013    0.1948   -1.2671 H   0  0  0  0  0  0  0  0  0  0  0  0
    0.4941    0.1054   -2.0818 H   0  0  0  0  0  0  0  0  0  0  0  0
    1.3640   -1.4414    1.8499 H   0  0  0  0  0  0  0  0  0  0  0  0
    2.7697    1.0124   -2.1484 H   0  0  0  0  0  0  0  0  0  0  0  0
   -3.9970    2.7481    1.3204 H   0  0  0  0  0  0  0  0  0  0  0  0
    5.8848    1.9947    0.7950 H   0  0  0  0  0  0  0  0  0  0  0  0
    4.1541    1.9109    1.5198 H   0  0  0  0  0  0  0  0  0  0  0  0
  1 10  2  0  0  0  0
  2 12  1  0  0  0  0
  2 25  1  0  0  0  0
  3 12  2  0  0  0  0
  4  7  1  0  0  0  0
  4 10  1  0  0  0  0
  4 21  1  0  0  0  0
  5 13  1  0  0  0  0
  5 15  2  0  0  0  0
  6 15  1  0  0  0  0
  6 16  2  0  0  0  0
  7  8  1  0  0  0  0
  7 17  1  0  0  0  0
  7 18  1  0  0  0  0
  8 12  1  0  0  0  0
  8 19  1  0  0  0  0
  8 20  1  0  0  0  0
  9 10  1  0  0  0  0
  9 11  1  0  0  0  0
  9 13  2  0  0  0  0
 11 14  2  0  0  0  0
 11 22  1  0  0  0  0
 13 23  1  0  0  0  0
 14 15  1  0  0  0  0
 14 24  1  0  0  0  0
 16 26  1  0  0  0  0
 16 27  1  0  0  0  0
M  END
>  <PUBCHEM_COMPOUND_CID>
144404811

>  <PUBCHEM_CONFORMER_RMSD>
0.8

>  <PUBCHEM_CONFORMER_DIVERSEORDER>
2
4
23
18
12
17
21
19
13
15
7
14
6
22
20
5
3
11
8
1
10
9
16

>  <PUBCHEM_MMFF94_PARTIAL_CHARGES>
23
1 -0.57
10 0.54
11 -0.15
12 0.66
13 0.16
14 -0.15
15 0.49
16 0.33
2 -0.65
21 0.37
22 0.15
23 0.15
24 0.15
25 0.5
26 0.06
27 0.06
3 -0.57
4 -0.73
5 -0.62
6 -0.63
7 0.3
8 0.06
9 0.09

>  <PUBCHEM_EFFECTIVE_ROTOR_COUNT>
6

>  <PUBCHEM_PHARMACOPHORE_FEATURES>
8
1 1 acceptor
1 2 acceptor
1 3 acceptor
1 4 donor
1 6 acceptor
3 2 3 12 anion
3 5 6 15 cation
6 5 9 11 13 14 15 rings

>  <PUBCHEM_HEAVY_ATOM_COUNT>
16

>  <PUBCHEM_ATOM_DEF_STEREO_COUNT>
0

>  <PUBCHEM_ATOM_UDEF_STEREO_COUNT>
0

>  <PUBCHEM_BOND_DEF_STEREO_COUNT>
0

>  <PUBCHEM_BOND_UDEF_STEREO_COUNT>
0

>  <PUBCHEM_ISOTOPIC_ATOM_COUNT>
0

>  <PUBCHEM_COMPONENT_COUNT>
1

>  <PUBCHEM_CACTVS_TAUTO_COUNT>
-1

>  <PUBCHEM_CONFORMER_ID>
089B714B00000002

>  <PUBCHEM_MMFF94_ENERGY>
32.2845

>  <PUBCHEM_FEATURE_SELFOVERLAP>
40.655

>  <PUBCHEM_SHAPE_FINGERPRINT>
10465860 228 18264210205819160739
10498660 4 18129945577092923193
10646746 165 18343585170120081688
11046707 91 8718831985249668215
11132069 177 18186523181124473069
12251169 10 17168151139317769615
12507557 5 17676202511581870045
12916748 109 18340212972184198663
13675066 3 18187368718277061006
14123255 352 18413384332682912269
14123260 362 18272093790216027409
14251764 38 18057603368262487040
14252887 29 16370714921130846018
15209294 21 18334289877101329996
1741750 31 18410014363861351634
17834072 32 18411135793134766781
17834074 16 11747204758468389432
1798214 20 11167936923098916877
18186145 218 18339089181048256935
193927 3 9222941612744978141
20112054 13 18114180817695773311
20645477 56 18201726209689845871
20671657 53 9799394647166224459
20871999 31 16702293590441782591
21713013 43 13829830423623322893
221490 88 11742969499680754709
22926399 65 18201720652017644889
231179 274 17346599716326928210
23379529 103 9943233900504675964
23402539 116 18130782378387065284
23402655 69 13901642808771046795
23503958 8 11746928776707150229
23557571 272 17417812889640170399
23559900 14 17988928838912536086
26918003 58 14490185016584055469
2838139 119 17702091677153495024
3268164 11 18060127778582378855
3472631 163 18202284680520144957
4028521 119 17775288248618878297
5104073 3 18333728013985839762
633830 44 18200031737870294591

>  <PUBCHEM_SHAPE_MULTIPOLES>
296.72
9.54
1.79
1.18
1.1
0.2
-0.05
6.05
1.44
-1.32
0.42
0.07
0.14
-0.28

>  <PUBCHEM_SHAPE_SELFOVERLAP>
610.272

>  <PUBCHEM_SHAPE_VOLUME>
168.9

>  <PUBCHEM_COORDINATE_TYPE>
2
5
10

$$$$
