144495629
 OpenBabel01182520543D

 24 24  0  0  0  0  0  0  0  0999 V2000
    4.1123   -0.8900    0.4384 O   0  0  0  0  0  0  0  0  0  0  0  0
   -2.1963   -0.2995   -0.0427 N   0  0  0  0  0  0  0  0  0  0  0  0
   -0.2154    1.0099    0.1535 N   0  0  0  0  0  0  0  0  0  0  0  0
   -5.1766   -0.5440   -0.0905 N   0  0  0  0  0  0  0  0  0  0  0  0
    1.9427   -0.0701    0.0082 C   0  0  0  0  0  0  0  0  0  0  0  0
   -0.7825   -0.2046   -0.0229 C   0  0  0  0  0  0  0  0  0  0  0  0
    1.3226   -1.3017   -0.1707 C   0  0  0  0  0  0  0  0  0  0  0  0
   -0.0657   -1.3787   -0.1879 C   0  0  0  0  0  0  0  0  0  0  0  0
    1.1360    1.0456    0.1644 C   0  0  0  0  0  0  0  0  0  0  0  0
    3.3905    0.0433    0.0308 C   0  0  0  0  0  0  0  0  0  0  0  0
    4.0710    1.3223   -0.4484 C   0  0  0  0  0  0  0  0  0  0  0  0
   -3.1031    0.6865    0.0943 C   0  0  0  0  0  0  0  0  0  0  0  0
   -4.4355    0.5810    0.0734 C   0  0  0  0  0  0  0  0  0  0  0  0
    1.9054   -2.2094   -0.3016 H   0  0  0  0  0  0  0  0  0  0  0  0
   -0.5544   -2.3374   -0.3281 H   0  0  0  0  0  0  0  0  0  0  0  0
    1.5485    2.0375    0.3200 H   0  0  0  0  0  0  0  0  0  0  0  0
   -2.5689   -1.2336   -0.1778 H   0  0  0  0  0  0  0  0  0  0  0  0
    4.1904    2.0091    0.3930 H   0  0  0  0  0  0  0  0  0  0  0  0
    3.4904    1.7954   -1.2449 H   0  0  0  0  0  0  0  0  0  0  0  0
    5.0529    1.0717   -0.8607 H   0  0  0  0  0  0  0  0  0  0  0  0
   -2.6743    1.6738    0.2373 H   0  0  0  0  0  0  0  0  0  0  0  0
   -5.0536    1.4635    0.1969 H   0  0  0  0  0  0  0  0  0  0  0  0
   -6.1869   -0.4821   -0.0860 H   0  0  0  0  0  0  0  0  0  0  0  0
   -4.7232   -1.4398   -0.2165 H   0  0  0  0  0  0  0  0  0  0  0  0
  1 10  2  0  0  0  0
  2  6  1  0  0  0  0
  2 12  1  0  0  0  0
  2 17  1  0  0  0  0
  3  6  2  0  0  0  0
  3  9  1  0  0  0  0
  4 13  1  0  0  0  0
  4 23  1  0  0  0  0
  4 24  1  0  0  0  0
  5  7  1  0  0  0  0
  5  9  2  0  0  0  0
  5 10  1  0  0  0  0
  6  8  1  0  0  0  0
  7  8  2  0  0  0  0
  7 14  1  0  0  0  0
  8 15  1  0  0  0  0
  9 16  1  0  0  0  0
 10 11  1  0  0  0  0
 11 18  1  0  0  0  0
 11 19  1  0  0  0  0
 11 20  1  0  0  0  0
 12 13  2  0  0  0  0
 12 21  1  0  0  0  0
 13 22  1  0  0  0  0
M  END
>  <PUBCHEM_COMPOUND_CID>
144495629

>  <PUBCHEM_CONFORMER_RMSD>
0.6

>  <PUBCHEM_CONFORMER_DIVERSEORDER>
1
28
17
33
43
47
44
23
20
15
31
38
5
16
40
2
26
18
13
4
48
46
39
27
34
19
29
8
22
24
37
32
45
25
11
3
14
12
7
42
10
9
30
21
6
36
35
41

>  <PUBCHEM_MMFF94_PARTIAL_CHARGES>
21
1 -0.57
10 0.42
11 0.06
12 -0.05
13 -0.05
14 0.15
15 0.15
16 0.15
17 0.4
2 -0.6
21 0.15
22 0.15
23 0.4
24 0.4
3 -0.62
4 -0.9
5 0.09
6 0.41
7 -0.15
8 -0.15
9 0.16

>  <PUBCHEM_EFFECTIVE_ROTOR_COUNT>
3

>  <PUBCHEM_PHARMACOPHORE_FEATURES>
6
1 1 acceptor
1 2 donor
1 4 cation
1 4 donor
3 2 3 6 cation
6 3 5 6 7 8 9 rings

>  <PUBCHEM_HEAVY_ATOM_COUNT>
13

>  <PUBCHEM_ATOM_DEF_STEREO_COUNT>
0

>  <PUBCHEM_ATOM_UDEF_STEREO_COUNT>
0

>  <PUBCHEM_BOND_DEF_STEREO_COUNT>
1

>  <PUBCHEM_BOND_UDEF_STEREO_COUNT>
0

>  <PUBCHEM_ISOTOPIC_ATOM_COUNT>
0

>  <PUBCHEM_COMPONENT_COUNT>
1

>  <PUBCHEM_CACTVS_TAUTO_COUNT>
-1

>  <PUBCHEM_CONFORMER_ID>
089CD40D00000001

>  <PUBCHEM_MMFF94_ENERGY>
40.018

>  <PUBCHEM_FEATURE_SELFOVERLAP>
30.447

>  <PUBCHEM_SHAPE_FINGERPRINT>
10219947 1 18334017181064184980
11062470 55 18408886230529044161
11401426 45 18201431476148728600
11471102 20 18410572885829837940
13380535 76 18411984654528673735
13690532 89 18411418388617361170
14123238 8 18341895207963436949
14325111 11 18410293631446047852
14911166 2 18201445800265730436
14993402 34 18202568392725936700
17834072 33 18342173410143361261
200 152 18201716267678903287
20279233 1 17894640236214824771
20645477 70 18411420570846278790
212847 35 18341892996034440552
23402539 116 17489580152595010661
23402655 69 18271519811245590949
23557571 272 16733263431128881159
265663 24 18259982665267325963
366044 4 18412825802277212170
4047638 21 18333735727931484988
42788 4 18408040706583117581
449060 62 18412547604671420962
4990 188 17703799106250210980
537710 114 18413111671195448688

>  <PUBCHEM_SHAPE_MULTIPOLES>
246.72
9
1.33
0.63
6.62
0.09
-0.01
-1.23
-0.08
-0.66
-0.06
-0.14
-0.01
-0.31

>  <PUBCHEM_SHAPE_SELFOVERLAP>
506.878

>  <PUBCHEM_SHAPE_VOLUME>
140.2

>  <PUBCHEM_COORDINATE_TYPE>
2
5
10

$$$$
