144625229
 OpenBabel01182520543D

 34 35  0  0  0  0  0  0  0  0999 V2000
   -2.3617    2.8695    0.8159 O   0  0  0  0  0  0  0  0  0  0  0  0
    0.2288    0.6715    0.2665 N   0  0  0  0  0  0  0  0  0  0  0  0
   -3.4007   -1.4222    0.1069 N   0  0  0  0  0  0  0  0  0  0  0  0
   -2.2115   -3.4570    0.4572 N   0  0  0  0  0  0  0  0  0  0  0  0
   -2.1323    2.6150   -1.4514 N   0  0  0  0  0  0  0  0  0  0  0  0
    4.1587   -0.8395   -0.4938 C   0  0  0  0  0  0  0  0  0  0  0  0
    3.0350   -1.1485   -1.4938 C   0  0  0  0  0  0  0  0  0  0  0  0
    3.8654    0.2974    0.4517 C   0  0  0  0  0  0  0  0  0  0  0  0
    1.4703    0.2256   -0.0945 C   0  0  0  0  0  0  0  0  0  0  0  0
    1.6757   -0.6658   -1.0815 C   0  0  0  0  0  0  0  0  0  0  0  0
    2.6177    0.7713    0.6126 C   0  0  0  0  0  0  0  0  0  0  0  0
   -0.9876   -0.0150    0.2114 C   0  0  0  0  0  0  0  0  0  0  0  0
    5.0326    0.8483    1.2153 C   0  0  0  0  0  0  0  0  0  0  0  0
   -2.1836    0.6645    0.0078 C   0  0  0  0  0  0  0  0  0  0  0  0
   -0.9967   -1.3973    0.3627 C   0  0  0  0  0  0  0  0  0  0  0  0
   -2.2185   -2.0482    0.3029 C   0  0  0  0  0  0  0  0  0  0  0  0
   -3.3523   -0.0787   -0.0359 C   0  0  0  0  0  0  0  0  0  0  0  0
   -2.2394    2.1090   -0.1597 C   0  0  0  0  0  0  0  0  0  0  0  0
    5.0751   -0.6286   -1.0589 H   0  0  0  0  0  0  0  0  0  0  0  0
    4.3621   -1.7366    0.1054 H   0  0  0  0  0  0  0  0  0  0  0  0
    2.9987   -2.2316   -1.6617 H   0  0  0  0  0  0  0  0  0  0  0  0
    3.2757   -0.6932   -2.4628 H   0  0  0  0  0  0  0  0  0  0  0  0
    0.8475   -1.0501   -1.6711 H   0  0  0  0  0  0  0  0  0  0  0  0
    2.4321    1.5855    1.3084 H   0  0  0  0  0  0  0  0  0  0  0  0
    0.1933    1.5955    0.6845 H   0  0  0  0  0  0  0  0  0  0  0  0
    5.5015    0.0594    1.8122 H   0  0  0  0  0  0  0  0  0  0  0  0
    4.7371    1.6521    1.8977 H   0  0  0  0  0  0  0  0  0  0  0  0
    5.7800    1.2540    0.5259 H   0  0  0  0  0  0  0  0  0  0  0  0
   -0.0918   -1.9647    0.5570 H   0  0  0  0  0  0  0  0  0  0  0  0
   -4.3174    0.3940   -0.1919 H   0  0  0  0  0  0  0  0  0  0  0  0
   -1.3838   -3.9682    0.1763 H   0  0  0  0  0  0  0  0  0  0  0  0
   -3.1061   -3.9285    0.4066 H   0  0  0  0  0  0  0  0  0  0  0  0
   -2.0236    2.0107   -2.2597 H   0  0  0  0  0  0  0  0  0  0  0  0
   -2.1587    3.6144   -1.6242 H   0  0  0  0  0  0  0  0  0  0  0  0
  1 18  2  0  0  0  0
  2  9  1  0  0  0  0
  2 12  1  0  0  0  0
  2 25  1  0  0  0  0
  3 16  2  0  0  0  0
  3 17  1  0  0  0  0
  4 16  1  0  0  0  0
  4 31  1  0  0  0  0
  4 32  1  0  0  0  0
  5 18  1  0  0  0  0
  5 33  1  0  0  0  0
  5 34  1  0  0  0  0
  6  7  1  0  0  0  0
  6  8  1  0  0  0  0
  6 19  1  0  0  0  0
  6 20  1  0  0  0  0
  7 10  1  0  0  0  0
  7 21  1  0  0  0  0
  7 22  1  0  0  0  0
  8 11  2  0  0  0  0
  8 13  1  0  0  0  0
  9 10  2  0  0  0  0
  9 11  1  0  0  0  0
 10 23  1  0  0  0  0
 11 24  1  0  0  0  0
 12 14  1  0  0  0  0
 12 15  2  0  0  0  0
 13 26  1  0  0  0  0
 13 27  1  0  0  0  0
 13 28  1  0  0  0  0
 14 17  2  0  0  0  0
 14 18  1  0  0  0  0
 15 16  1  0  0  0  0
 15 29  1  0  0  0  0
 17 30  1  0  0  0  0
M  END
>  <PUBCHEM_COMPOUND_CID>
144625229

>  <PUBCHEM_CONFORMER_RMSD>
0.6

>  <PUBCHEM_CONFORMER_DIVERSEORDER>
1
66
61
5
62
57
41
47
40
18
54
24
7
53
46
56
21
55
45
72
32
8
67
6
38
36
33
70
37
16
29
19
65
13
52
63
3
68
15
9
60
4
64
39
11
10
2
28
34
14
22
59
35
12
42
23
26
69
71
43
31
44
30
58
48
50
51
49
17
27
20
25

>  <PUBCHEM_MMFF94_PARTIAL_CHARGES>
27
1 -0.57
10 -0.29
11 -0.15
12 0.1
13 0.14
14 0.09
15 -0.15
16 0.41
17 0.16
18 0.54
2 -0.6
23 0.15
24 0.15
25 0.4
29 0.15
3 -0.62
30 0.15
31 0.4
32 0.4
33 0.37
34 0.37
4 -0.9
5 -0.8
6 0.14
7 0.14
8 -0.28
9 0.1

>  <PUBCHEM_EFFECTIVE_ROTOR_COUNT>
3.4

>  <PUBCHEM_PHARMACOPHORE_FEATURES>
8
1 1 acceptor
1 2 cation
1 2 donor
1 4 donor
1 5 donor
3 3 4 16 cation
6 3 12 14 15 16 17 rings
6 6 7 8 9 10 11 rings

>  <PUBCHEM_HEAVY_ATOM_COUNT>
18

>  <PUBCHEM_ATOM_DEF_STEREO_COUNT>
0

>  <PUBCHEM_ATOM_UDEF_STEREO_COUNT>
0

>  <PUBCHEM_BOND_DEF_STEREO_COUNT>
0

>  <PUBCHEM_BOND_UDEF_STEREO_COUNT>
0

>  <PUBCHEM_ISOTOPIC_ATOM_COUNT>
0

>  <PUBCHEM_COMPONENT_COUNT>
1

>  <PUBCHEM_CACTVS_TAUTO_COUNT>
-1

>  <PUBCHEM_CONFORMER_ID>
089ECE4D00000001

>  <PUBCHEM_MMFF94_ENERGY>
66.6347

>  <PUBCHEM_FEATURE_SELFOVERLAP>
40.596

>  <PUBCHEM_SHAPE_FINGERPRINT>
10319926 262 18340187636947496034
10366900 7 18131344258666776472
10608611 8 18272651229805613616
10646746 165 18411700946521825380
12173636 292 18265615373231981549
12500047 106 18264490594411569966
12507560 40 18273492373797176952
12553582 1 17977403937664836591
12730499 353 17687188587239250333
13140716 1 18192438691147261163
13296908 3 18131355176695182486
13583140 156 18121182534139139024
14178342 30 18261109664955016522
14289901 80 18334299799040084834
15042514 8 18334863865654036875
15099037 37 18340481283186231050
15219456 202 18131351886739697132
15375358 24 18273213110180348326
16752209 62 18187915167287903979
16945 1 18335710446409330995
18186145 218 18196657289540281788
19049666 15 18200881656100391126
19141452 34 18130515253207969807
200 152 16988839492956692935
20279233 1 18272375290962697622
20510252 161 18342458114882939097
20645477 56 18338521837179949609
20645477 70 17203331062099928510
20693207 138 18058470745644807974
21065201 7 18408324367888332954
21650355 55 18265049318011780851
22943178 12 18201441359443600158
23402539 116 18339067285605551839
23526113 38 17917425402475937306
23557571 272 18411979204030123593
23559900 14 18198906908170015646
23845131 108 17834413228726650049
2748010 2 18131079212145786006
4214541 1 18410008815296231816
5104073 3 18272369733591372674
573450 72 18114166528714041968
6049 1 18130523975990401982
6438718 38 15865174807138007086
7615 1 17676214601893683412
77492 1 16950569869849835588
81228 2 18335713770750811713
8809292 202 18342184336287077898
9709674 26 18272092690725654614

>  <PUBCHEM_SHAPE_MULTIPOLES>
344.64
8.12
2.8
1.09
7.78
0.15
0.27
-0.24
-1.1
-3.74
-0.1
0.73
-0.15
1.46

>  <PUBCHEM_SHAPE_SELFOVERLAP>
731.967

>  <PUBCHEM_SHAPE_VOLUME>
190.7

>  <PUBCHEM_COORDINATE_TYPE>
2
5
10

$$$$
