144940858
 OpenBabel01182520543D

 35 36  0  0  1  0  0  0  0  0999 V2000
    0.3002    1.7325    1.1996 O   0  0  0  0  0  0  0  0  0  0  0  0
   -0.5318   -0.0847    0.0236 N   0  0  0  0  0  0  0  0  0  0  0  0
   -5.0314   -1.9814    0.4160 N   0  0  0  0  0  0  0  0  0  0  0  0
    4.1952    0.8378   -0.0495 N   0  0  0  0  0  0  0  0  0  0  0  0
    5.7684   -0.8800   -0.5508 N   0  0  0  0  0  0  0  0  0  0  0  0
   -1.9297    0.2269    0.1995 C   0  0  2  0  0  0  0  0  0  0  0  0
   -4.2607   -0.7383    0.4082 C   0  0  1  0  0  0  0  0  0  0  0  0
   -2.7675   -1.0549    0.2636 C   0  0  0  0  0  0  0  0  0  0  0  0
   -2.4162    1.1551   -0.9158 C   0  0  0  0  0  0  0  0  0  0  0  0
   -4.7407    0.1850   -0.7179 C   0  0  0  0  0  0  0  0  0  0  0  0
   -3.9053    1.4620   -0.7839 C   0  0  0  0  0  0  0  0  0  0  0  0
    0.4785    0.7074    0.5471 C   0  0  0  0  0  0  0  0  0  0  0  0
    1.8664    0.2649    0.2554 C   0  0  0  0  0  0  0  0  0  0  0  0
    2.1573   -1.0743    0.0194 C   0  0  0  0  0  0  0  0  0  0  0  0
    2.9115    1.1733    0.2100 C   0  0  0  0  0  0  0  0  0  0  0  0
    3.4661   -1.4584   -0.2509 C   0  0  0  0  0  0  0  0  0  0  0  0
    4.4397   -0.4729   -0.2738 C   0  0  0  0  0  0  0  0  0  0  0  0
   -2.0370    0.7548    1.1564 H   0  0  0  0  0  0  0  0  0  0  0  0
   -4.4220   -0.2334    1.3692 H   0  0  0  0  0  0  0  0  0  0  0  0
   -2.4290   -1.6709    1.1073 H   0  0  0  0  0  0  0  0  0  0  0  0
   -2.5960   -1.6529   -0.6425 H   0  0  0  0  0  0  0  0  0  0  0  0
   -2.2252    0.6941   -1.8939 H   0  0  0  0  0  0  0  0  0  0  0  0
   -1.8493    2.0940   -0.9017 H   0  0  0  0  0  0  0  0  0  0  0  0
   -5.7941    0.4505   -0.5663 H   0  0  0  0  0  0  0  0  0  0  0  0
   -4.6795   -0.3344   -1.6834 H   0  0  0  0  0  0  0  0  0  0  0  0
   -4.2321    2.0717   -1.6339 H   0  0  0  0  0  0  0  0  0  0  0  0
   -4.0767    2.0577    0.1211 H   0  0  0  0  0  0  0  0  0  0  0  0
   -0.3058   -0.8579   -0.5936 H   0  0  0  0  0  0  0  0  0  0  0  0
   -4.7404   -2.5609    1.2022 H   0  0  0  0  0  0  0  0  0  0  0  0
   -6.0181   -1.7720    0.5616 H   0  0  0  0  0  0  0  0  0  0  0  0
    1.3978   -1.8490    0.0641 H   0  0  0  0  0  0  0  0  0  0  0  0
    2.7531    2.2337    0.3809 H   0  0  0  0  0  0  0  0  0  0  0  0
    3.7018   -2.5023   -0.4309 H   0  0  0  0  0  0  0  0  0  0  0  0
    6.0461   -1.8210   -0.3004 H   0  0  0  0  0  0  0  0  0  0  0  0
    6.4776   -0.1574   -0.5604 H   0  0  0  0  0  0  0  0  0  0  0  0
  1 12  2  0  0  0  0
  2  6  1  0  0  0  0
  2 12  1  0  0  0  0
  2 28  1  0  0  0  0
  3  7  1  0  0  0  0
  3 29  1  0  0  0  0
  3 30  1  0  0  0  0
  4 15  1  0  0  0  0
  4 17  2  0  0  0  0
  5 17  1  0  0  0  0
  5 34  1  0  0  0  0
  5 35  1  0  0  0  0
  6  8  1  0  0  0  0
  6  9  1  0  0  0  0
  6 18  1  1  0  0  0
  7  8  1  0  0  0  0
  7 10  1  0  0  0  0
  7 19  1  1  0  0  0
  8 20  1  0  0  0  0
  8 21  1  0  0  0  0
  9 11  1  0  0  0  0
  9 22  1  0  0  0  0
  9 23  1  0  0  0  0
 10 11  1  0  0  0  0
 10 24  1  0  0  0  0
 10 25  1  0  0  0  0
 11 26  1  0  0  0  0
 11 27  1  0  0  0  0
 12 13  1  0  0  0  0
 13 14  1  0  0  0  0
 13 15  2  0  0  0  0
 14 16  2  0  0  0  0
 14 31  1  0  0  0  0
 15 32  1  0  0  0  0
 16 17  1  0  0  0  0
 16 33  1  0  0  0  0
M  END
>  <PUBCHEM_COMPOUND_CID>
144940858

>  <PUBCHEM_CONFORMER_RMSD>
0.6

>  <PUBCHEM_CONFORMER_DIVERSEORDER>
2
19
34
23
30
21
8
17
5
27
31
29
22
1
33
7
18
28
32
6
24
9
3
11
20
14
10
4
12
26
13
15
25
16

>  <PUBCHEM_MMFF94_PARTIAL_CHARGES>
21
1 -0.57
12 0.54
13 0.09
14 -0.15
15 0.16
16 -0.15
17 0.41
2 -0.73
28 0.37
29 0.36
3 -0.99
30 0.36
31 0.15
32 0.15
33 0.15
34 0.4
35 0.4
4 -0.62
5 -0.9
6 0.3
7 0.27

>  <PUBCHEM_EFFECTIVE_ROTOR_COUNT>
4.2

>  <PUBCHEM_PHARMACOPHORE_FEATURES>
8
1 1 acceptor
1 2 donor
1 3 cation
1 3 donor
1 5 donor
3 4 5 17 cation
6 4 13 14 15 16 17 rings
6 6 7 8 9 10 11 rings

>  <PUBCHEM_HEAVY_ATOM_COUNT>
17

>  <PUBCHEM_ATOM_DEF_STEREO_COUNT>
2

>  <PUBCHEM_ATOM_UDEF_STEREO_COUNT>
0

>  <PUBCHEM_BOND_DEF_STEREO_COUNT>
0

>  <PUBCHEM_BOND_UDEF_STEREO_COUNT>
0

>  <PUBCHEM_ISOTOPIC_ATOM_COUNT>
0

>  <PUBCHEM_COMPONENT_COUNT>
1

>  <PUBCHEM_CACTVS_TAUTO_COUNT>
-1

>  <PUBCHEM_CONFORMER_ID>
08A39F3A00000002

>  <PUBCHEM_MMFF94_ENERGY>
34.0232

>  <PUBCHEM_FEATURE_SELFOVERLAP>
40.596

>  <PUBCHEM_SHAPE_FINGERPRINT>
10498660 4 17313651677642817373
10680689 15 17967536761835316873
11128504 68 16660371397690804278
11287383 113 18260829323633147180
11471102 20 18343017800861597152
12236239 1 16056878044143681381
12251169 10 10375860888063104552
12596602 18 15482660312609369703
13288520 33 18410857668395505735
13760787 5 17418091035521549080
14251718 22 18186804694629249566
14251731 8 18335420140763523599
14252887 29 17203615865407261342
14350574 20 18411143545439427082
15196674 1 18410011043793258666
15242439 84 18408880720318170549
15961568 22 17313947562367318636
17834072 33 18114185254412782196
17834074 16 18409164424483121487
17844677 252 18409736166039808741
1813 80 16415489254743237816
18186145 218 18186514380441220520
193927 3 17845947238291546286
19433438 38 18261109651663698790
1986462 14 18259984860143131837
200 152 18059855034936557336
20325693 3 17894911811381432837
20374829 77 18334853905081032051
20645477 56 18040995082374511293
20645477 70 18272089370721281062
20871999 31 18113335293385973341
21065201 7 18040987441068301577
21267235 1 18272099292232787214
22094290 60 18113336405961864029
221357 26 18412536605418892805
221490 88 18337394958072901938
2297311 6 18260272949554127181
23175994 123 18060137643927442361
23402539 116 16732702731627520158
23402655 69 18410011009834453556
23557571 272 18186804647205456501
23559900 14 18409160013267047376
26918003 58 18342173341318402346
2871803 45 18334855013198555082
3004659 81 18334294237089396642
3268164 11 16733255794756188991
3545911 37 18260547792911532677
4214541 1 18408322168537886805
474 4 15647627798967227156
4921388 177 17022914462261177531
4990 188 18334294245267679738
5104073 3 18412540989984150512
5281201 14 18260831509650344340
542803 24 14045740439115321106
633830 44 14201675274152862369
77779 3 18335138682950883821
9709674 26 18261114140062869803

>  <PUBCHEM_SHAPE_MULTIPOLES>
324.06
12
1.66
0.85
1.85
0.14
-0.01
3.52
2.2
-0.81
-0.1
-0.27
-0.19
1.12

>  <PUBCHEM_SHAPE_SELFOVERLAP>
672.998

>  <PUBCHEM_SHAPE_VOLUME>
181.9

>  <PUBCHEM_COORDINATE_TYPE>
2
5
10

$$$$
