145770021
 OpenBabel01182520543D

 29 29  0  0  0  0  0  0  0  0999 V2000
    1.7226   -0.4209    1.8174 O   0  0  0  0  0  0  0  0  0  0  0  0
    2.2942   -0.6988   -0.4320 N   0  0  0  0  0  0  0  0  0  0  0  0
    0.3548    2.1435    0.1050 N   0  0  0  0  0  0  0  0  0  0  0  0
   -1.8253    1.2723   -0.2261 N   0  0  0  0  0  0  0  0  0  0  0  0
   -0.0065   -0.2253    0.3159 C   0  0  0  0  0  0  0  0  0  0  0  0
   -0.5261    1.0337    0.0618 C   0  0  0  0  0  0  0  0  0  0  0  0
   -0.8762   -1.3095    0.2718 C   0  0  0  0  0  0  0  0  0  0  0  0
    1.4139   -0.4527    0.6267 C   0  0  0  0  0  0  0  0  0  0  0  0
   -2.2199   -1.1040   -0.0208 C   0  0  0  0  0  0  0  0  0  0  0  0
   -2.6405    0.1943   -0.2599 C   0  0  0  0  0  0  0  0  0  0  0  0
   -3.1755   -2.2423   -0.0757 C   0  0  0  0  0  0  0  0  0  0  0  0
    1.8504   -0.7204   -1.8242 C   0  0  0  0  0  0  0  0  0  0  0  0
    3.7127   -0.9499   -0.2186 C   0  0  0  0  0  0  0  0  0  0  0  0
   -0.0786    3.4800   -0.1412 C   0  0  0  0  0  0  0  0  0  0  0  0
   -0.5079   -2.3139    0.4665 H   0  0  0  0  0  0  0  0  0  0  0  0
   -3.6770    0.4191   -0.4920 H   0  0  0  0  0  0  0  0  0  0  0  0
    1.3466    1.9500    0.0195 H   0  0  0  0  0  0  0  0  0  0  0  0
    2.4136    0.0387   -2.3759 H   0  0  0  0  0  0  0  0  0  0  0  0
    0.7876   -0.5251   -1.9620 H   0  0  0  0  0  0  0  0  0  0  0  0
    2.0768   -1.7064   -2.2417 H   0  0  0  0  0  0  0  0  0  0  0  0
    3.9609   -1.9388   -0.6141 H   0  0  0  0  0  0  0  0  0  0  0  0
    3.9599   -0.9170    0.8456 H   0  0  0  0  0  0  0  0  0  0  0  0
    4.2908   -0.1849   -0.7446 H   0  0  0  0  0  0  0  0  0  0  0  0
   -3.5696   -2.4518    0.9236 H   0  0  0  0  0  0  0  0  0  0  0  0
   -4.0159   -2.0234   -0.7433 H   0  0  0  0  0  0  0  0  0  0  0  0
   -2.6884   -3.1456   -0.4585 H   0  0  0  0  0  0  0  0  0  0  0  0
   -0.8407    3.7899    0.5814 H   0  0  0  0  0  0  0  0  0  0  0  0
   -0.4836    3.5865   -1.1528 H   0  0  0  0  0  0  0  0  0  0  0  0
    0.7663    4.1693   -0.0466 H   0  0  0  0  0  0  0  0  0  0  0  0
  1  8  2  0  0  0  0
  2  8  1  0  0  0  0
  2 12  1  0  0  0  0
  2 13  1  0  0  0  0
  3  6  1  0  0  0  0
  3 14  1  0  0  0  0
  3 17  1  0  0  0  0
  4  6  1  0  0  0  0
  4 10  2  0  0  0  0
  5  6  2  0  0  0  0
  5  7  1  0  0  0  0
  5  8  1  0  0  0  0
  7  9  2  0  0  0  0
  7 15  1  0  0  0  0
  9 10  1  0  0  0  0
  9 11  1  0  0  0  0
 10 16  1  0  0  0  0
 11 24  1  0  0  0  0
 11 25  1  0  0  0  0
 11 26  1  0  0  0  0
 12 18  1  0  0  0  0
 12 19  1  0  0  0  0
 12 20  1  0  0  0  0
 13 21  1  0  0  0  0
 13 22  1  0  0  0  0
 13 23  1  0  0  0  0
 14 27  1  0  0  0  0
 14 28  1  0  0  0  0
 14 29  1  0  0  0  0
M  END
>  <PUBCHEM_COMPOUND_CID>
145770021

>  <PUBCHEM_CONFORMER_RMSD>
0.6

>  <PUBCHEM_CONFORMER_DIVERSEORDER>
1
7
5
3
6
4
2

>  <PUBCHEM_MMFF94_PARTIAL_CHARGES>
17
1 -0.57
10 0.16
11 0.14
12 0.3
13 0.3
14 0.37
15 0.15
16 0.15
17 0.4
2 -0.66
3 -0.87
4 -0.62
5 0.09
6 0.41
7 -0.15
8 0.54
9 -0.14

>  <PUBCHEM_EFFECTIVE_ROTOR_COUNT>
3

>  <PUBCHEM_PHARMACOPHORE_FEATURES>
5
1 1 acceptor
1 3 cation
1 3 donor
1 4 acceptor
6 4 5 6 7 9 10 rings

>  <PUBCHEM_HEAVY_ATOM_COUNT>
14

>  <PUBCHEM_ATOM_DEF_STEREO_COUNT>
0

>  <PUBCHEM_ATOM_UDEF_STEREO_COUNT>
0

>  <PUBCHEM_BOND_DEF_STEREO_COUNT>
0

>  <PUBCHEM_BOND_UDEF_STEREO_COUNT>
0

>  <PUBCHEM_ISOTOPIC_ATOM_COUNT>
0

>  <PUBCHEM_COMPONENT_COUNT>
1

>  <PUBCHEM_CACTVS_TAUTO_COUNT>
-1

>  <PUBCHEM_CONFORMER_ID>
08B0462500000001

>  <PUBCHEM_MMFF94_ENERGY>
51.1928

>  <PUBCHEM_FEATURE_SELFOVERLAP>
25.372

>  <PUBCHEM_SHAPE_FINGERPRINT>
1 1 17619630627818906957
11578080 2 16953615551397733300
12423570 1 17841414127675041403
12532896 13 17623014490780659145
12716758 59 17909274576681643838
14817 1 18122881167412501020
161256 15 18119248617354686845
16945 1 18265320712478493833
17134986 127 17039235316363863468
17990270 104 18268144447433208507
19837323 101 17833851377472115072
19868273 325 18409449167755747719
20645477 70 17905878533710416863
20711985 344 18268143154463455753
20871998 22 18340204219040875531
20871999 31 18408322181385904743
21061003 4 16558750066660551394
21524375 3 17322967642012194608
22213442 358 18340487880002790126
22802520 49 17985560952448390166
228727 97 17895487946499460850
23402539 116 18269545057563948902
23552423 10 18044371858354855541
23557571 272 18271535217018747660
23559900 14 18269266860554996898
2748010 2 18339344357998262169
3071541 250 18265341788035937485
53812653 8 17974571290710576041
7364860 26 18053383489768225057
77492 1 17531246106737292394
81228 2 18198066884774247145
81539 233 17470157528502766021

>  <PUBCHEM_SHAPE_MULTIPOLES>
267.3
4.52
2.75
1.1
0.69
3.1
-0.06
-3.37
-0.56
-0.81
-0.19
0.81
-0.3
0.19

>  <PUBCHEM_SHAPE_SELFOVERLAP>
545.314

>  <PUBCHEM_SHAPE_VOLUME>
156.8

>  <PUBCHEM_COORDINATE_TYPE>
2
5
10

$$$$
