145769927
 OpenBabel01182520543D

 23 23  0  0  0  0  0  0  0  0999 V2000
    1.8882   -1.8279    1.1172 O   0  0  0  0  0  0  0  0  0  0  0  0
    1.6551    1.3965    0.0118 N   0  0  0  0  0  0  0  0  0  0  0  0
   -0.6987    1.6785   -0.0142 N   0  0  0  0  0  0  0  0  0  0  0  0
    1.9195   -1.8445   -1.1756 N   0  0  0  0  0  0  0  0  0  0  0  0
    0.2403   -0.5490    0.0237 C   0  0  0  0  0  0  0  0  0  0  0  0
    0.3550    0.8318    0.0067 C   0  0  0  0  0  0  0  0  0  0  0  0
   -2.1470   -0.2574   -0.0028 C   0  0  0  0  0  0  0  0  0  0  0  0
   -1.0381   -1.0960    0.0186 C   0  0  0  0  0  0  0  0  0  0  0  0
   -1.9254    1.1103   -0.0184 C   0  0  0  0  0  0  0  0  0  0  0  0
   -3.5273   -0.8111   -0.0088 C   0  0  0  0  0  0  0  0  0  0  0  0
    1.3956   -1.4355    0.0462 C   0  0  0  0  0  0  0  0  0  0  0  0
    1.8828    2.8044   -0.0043 C   0  0  0  0  0  0  0  0  0  0  0  0
   -1.1715   -2.1752    0.0330 H   0  0  0  0  0  0  0  0  0  0  0  0
   -2.7500    1.8163   -0.0337 H   0  0  0  0  0  0  0  0  0  0  0  0
    2.4221    0.7953   -0.2684 H   0  0  0  0  0  0  0  0  0  0  0  0
   -3.8629   -0.9975    1.0162 H   0  0  0  0  0  0  0  0  0  0  0  0
   -4.2303   -0.1197   -0.4857 H   0  0  0  0  0  0  0  0  0  0  0  0
   -3.5709   -1.7508   -0.5697 H   0  0  0  0  0  0  0  0  0  0  0  0
    1.4417    3.2882    0.8733 H   0  0  0  0  0  0  0  0  0  0  0  0
    1.4699    3.2635   -0.9085 H   0  0  0  0  0  0  0  0  0  0  0  0
    2.9580    3.0084    0.0113 H   0  0  0  0  0  0  0  0  0  0  0  0
    1.5259   -1.5396   -2.0602 H   0  0  0  0  0  0  0  0  0  0  0  0
    2.7198   -2.4666   -1.2183 H   0  0  0  0  0  0  0  0  0  0  0  0
  1 11  2  0  0  0  0
  2  6  1  0  0  0  0
  2 12  1  0  0  0  0
  2 15  1  0  0  0  0
  3  6  1  0  0  0  0
  3  9  2  0  0  0  0
  4 11  1  0  0  0  0
  4 22  1  0  0  0  0
  4 23  1  0  0  0  0
  5  6  2  0  0  0  0
  5  8  1  0  0  0  0
  5 11  1  0  0  0  0
  7  8  2  0  0  0  0
  7  9  1  0  0  0  0
  7 10  1  0  0  0  0
  8 13  1  0  0  0  0
  9 14  1  0  0  0  0
 10 16  1  0  0  0  0
 10 17  1  0  0  0  0
 10 18  1  0  0  0  0
 12 19  1  0  0  0  0
 12 20  1  0  0  0  0
 12 21  1  0  0  0  0
M  END
>  <PUBCHEM_COMPOUND_CID>
145769927

>  <PUBCHEM_CONFORMER_RMSD>
0.6

>  <PUBCHEM_CONFORMER_DIVERSEORDER>
1
4
2
3

>  <PUBCHEM_MMFF94_PARTIAL_CHARGES>
17
1 -0.57
10 0.14
11 0.54
12 0.37
13 0.15
14 0.15
15 0.4
2 -0.87
22 0.37
23 0.37
3 -0.62
4 -0.8
5 0.09
6 0.41
7 -0.14
8 -0.15
9 0.16

>  <PUBCHEM_EFFECTIVE_ROTOR_COUNT>
2

>  <PUBCHEM_PHARMACOPHORE_FEATURES>
6
1 1 acceptor
1 2 cation
1 2 donor
1 3 acceptor
1 4 donor
6 3 5 6 7 8 9 rings

>  <PUBCHEM_HEAVY_ATOM_COUNT>
12

>  <PUBCHEM_ATOM_DEF_STEREO_COUNT>
0

>  <PUBCHEM_ATOM_UDEF_STEREO_COUNT>
0

>  <PUBCHEM_BOND_DEF_STEREO_COUNT>
0

>  <PUBCHEM_BOND_UDEF_STEREO_COUNT>
0

>  <PUBCHEM_ISOTOPIC_ATOM_COUNT>
0

>  <PUBCHEM_COMPONENT_COUNT>
1

>  <PUBCHEM_CACTVS_TAUTO_COUNT>
-1

>  <PUBCHEM_CONFORMER_ID>
08B045C700000001

>  <PUBCHEM_MMFF94_ENERGY>
45.7522

>  <PUBCHEM_FEATURE_SELFOVERLAP>
30.446

>  <PUBCHEM_SHAPE_FINGERPRINT>
1 1 18266174131086097804
12423570 1 18130208402946938611
12524768 44 18410859884298138495
13380535 76 18120931965145709723
14128692 85 18340496551504857007
14817 1 16819976776325290590
161256 15 18409736166065792845
16945 1 18409727395631687521
17990270 104 18341614776326305567
19021347 11 18265048213930703601
193761 8 18410573942476630433
20645476 183 17100874423669447340
20645477 70 18340200882489876055
20653091 64 18410012108987391907
20711985 344 17476645278250864166
20871998 22 18269840821907779255
21040471 1 17761774370097691088
21501502 16 18410855439160032841
21524375 3 18051127300429423952
21650355 55 17757245116794283530
23552423 10 18335143089724414565
23559900 14 17405987354617075694
241688 4 18122343467292355184
2748010 2 18267575802126448861
528862 383 18337665425106532947
7364860 26 18343304785843544140
81228 2 17621032062741461032
81539 233 18117271673793748237

>  <PUBCHEM_SHAPE_MULTIPOLES>
226.14
3.8
2.63
0.76
2.7
0.44
0.02
0.21
0.04
-2.39
0.03
-0.27
-0.36
0.03

>  <PUBCHEM_SHAPE_SELFOVERLAP>
467.437

>  <PUBCHEM_SHAPE_VOLUME>
130.2

>  <PUBCHEM_COORDINATE_TYPE>
2
5
10

$$$$
