146471272
 OpenBabel01182520543D

 38 39  0  0  0  0  0  0  0  0999 V2000
   -1.2112   -1.5383    0.6996 O   0  0  0  0  0  0  0  0  0  0  0  0
    1.2548   -0.5675    0.3201 N   0  0  0  0  0  0  0  0  0  0  0  0
    1.3754    1.7753    0.1669 N   0  0  0  0  0  0  0  0  0  0  0  0
   -2.7384   -0.5407   -0.7236 N   0  0  0  0  0  0  0  0  0  0  0  0
   -3.9566   -0.9537    1.2176 N   0  0  0  0  0  0  0  0  0  0  0  0
   -5.1360   -0.7606   -0.7255 N   0  0  0  0  0  0  0  0  0  0  0  0
    4.2223   -0.9930    0.1259 C   0  0  0  0  0  0  0  0  0  0  0  0
    3.7129   -0.4136   -1.1949 C   0  0  0  0  0  0  0  0  0  0  0  0
    3.5014   -0.4351    1.3592 C   0  0  0  0  0  0  0  0  0  0  0  0
    2.4726   -1.0970   -1.7814 C   0  0  0  0  0  0  0  0  0  0  0  0
    2.0505   -0.8902    1.5088 C   0  0  0  0  0  0  0  0  0  0  0  0
    1.3890   -1.5165   -0.7883 C   0  0  0  0  0  0  0  0  0  0  0  0
    0.6113    0.6600    0.1639 C   0  0  0  0  0  0  0  0  0  0  0  0
   -0.7666    0.6642    0.0186 C   0  0  0  0  0  0  0  0  0  0  0  0
   -1.4014    1.8919   -0.1331 C   0  0  0  0  0  0  0  0  0  0  0  0
    0.7233    2.9502    0.0170 C   0  0  0  0  0  0  0  0  0  0  0  0
   -1.5637   -0.5549    0.0234 C   0  0  0  0  0  0  0  0  0  0  0  0
   -0.6493    3.0615   -0.1351 C   0  0  0  0  0  0  0  0  0  0  0  0
   -3.8904   -0.7420   -0.1392 C   0  0  0  0  0  0  0  0  0  0  0  0
    4.1770   -2.0881    0.1135 H   0  0  0  0  0  0  0  0  0  0  0  0
    5.2826   -0.7265    0.2216 H   0  0  0  0  0  0  0  0  0  0  0  0
    3.5317    0.6617   -1.0849 H   0  0  0  0  0  0  0  0  0  0  0  0
    4.5132   -0.4979   -1.9416 H   0  0  0  0  0  0  0  0  0  0  0  0
    4.0502   -0.7546    2.2538 H   0  0  0  0  0  0  0  0  0  0  0  0
    3.5544    0.6599    1.3457 H   0  0  0  0  0  0  0  0  0  0  0  0
    2.7822   -1.9861   -2.3453 H   0  0  0  0  0  0  0  0  0  0  0  0
    2.0348   -0.4143   -2.5212 H   0  0  0  0  0  0  0  0  0  0  0  0
    2.0200   -1.9693    1.7035 H   0  0  0  0  0  0  0  0  0  0  0  0
    1.6076   -0.4133    2.3921 H   0  0  0  0  0  0  0  0  0  0  0  0
    0.4473   -1.6401   -1.3346 H   0  0  0  0  0  0  0  0  0  0  0  0
    1.6298   -2.5143   -0.4001 H   0  0  0  0  0  0  0  0  0  0  0  0
   -2.4795    1.9722   -0.2403 H   0  0  0  0  0  0  0  0  0  0  0  0
    1.3550    3.8323    0.0229 H   0  0  0  0  0  0  0  0  0  0  0  0
   -1.1227    4.0300   -0.2493 H   0  0  0  0  0  0  0  0  0  0  0  0
   -4.8480   -1.1078    1.6767 H   0  0  0  0  0  0  0  0  0  0  0  0
   -3.1349   -0.9656    1.8112 H   0  0  0  0  0  0  0  0  0  0  0  0
   -5.2473   -0.6133   -1.7227 H   0  0  0  0  0  0  0  0  0  0  0  0
   -5.9758   -0.9239   -0.1810 H   0  0  0  0  0  0  0  0  0  0  0  0
  1 17  2  0  0  0  0
  2 11  1  0  0  0  0
  2 12  1  0  0  0  0
  2 13  1  0  0  0  0
  3 13  1  0  0  0  0
  3 16  2  0  0  0  0
  4 17  1  0  0  0  0
  4 19  2  0  0  0  0
  5 19  1  0  0  0  0
  5 35  1  0  0  0  0
  5 36  1  0  0  0  0
  6 19  1  0  0  0  0
  6 37  1  0  0  0  0
  6 38  1  0  0  0  0
  7  8  1  0  0  0  0
  7  9  1  0  0  0  0
  7 20  1  0  0  0  0
  7 21  1  0  0  0  0
  8 10  1  0  0  0  0
  8 22  1  0  0  0  0
  8 23  1  0  0  0  0
  9 11  1  0  0  0  0
  9 24  1  0  0  0  0
  9 25  1  0  0  0  0
 10 12  1  0  0  0  0
 10 26  1  0  0  0  0
 10 27  1  0  0  0  0
 11 28  1  0  0  0  0
 11 29  1  0  0  0  0
 12 30  1  0  0  0  0
 12 31  1  0  0  0  0
 13 14  2  0  0  0  0
 14 15  1  0  0  0  0
 14 17  1  0  0  0  0
 15 18  2  0  0  0  0
 15 32  1  0  0  0  0
 16 18  1  0  0  0  0
 16 33  1  0  0  0  0
 18 34  1  0  0  0  0
M  END
>  <PUBCHEM_COMPOUND_CID>
146471272

>  <PUBCHEM_CONFORMER_RMSD>
0.6

>  <PUBCHEM_CONFORMER_DIVERSEORDER>
1
58
3
70
25
80
21
66
16
24
72
83
30
17
42
62
69
78
81
65
53
28
76
63
59
39
47
36
13
77
75
79
29
64
27
20
38
56
67
73
35
37
54
49
23
84
74
41
15
31
4
51
46
44
22
32
68
2
50
48
6
45
34
5
26
43
8
55
12
14
33
9
52
71
40
10
18
82
57
19
11
61
60
7

>  <PUBCHEM_MMFF94_PARTIAL_CHARGES>
22
1 -0.57
11 0.37
12 0.37
13 0.41
14 0.09
15 -0.15
16 0.16
17 0.69
18 -0.15
19 0.55
2 -0.84
3 -0.62
32 0.15
33 0.15
34 0.15
35 0.4
36 0.4
37 0.4
38 0.4
4 -0.66
5 -0.85
6 -0.85

>  <PUBCHEM_EFFECTIVE_ROTOR_COUNT>
4.4

>  <PUBCHEM_PHARMACOPHORE_FEATURES>
8
1 1 acceptor
1 2 cation
1 3 acceptor
1 4 donor
1 5 donor
1 6 donor
6 3 13 14 15 16 18 rings
7 2 7 8 9 10 11 12 rings

>  <PUBCHEM_HEAVY_ATOM_COUNT>
19

>  <PUBCHEM_ATOM_DEF_STEREO_COUNT>
0

>  <PUBCHEM_ATOM_UDEF_STEREO_COUNT>
0

>  <PUBCHEM_BOND_DEF_STEREO_COUNT>
0

>  <PUBCHEM_BOND_UDEF_STEREO_COUNT>
0

>  <PUBCHEM_ISOTOPIC_ATOM_COUNT>
0

>  <PUBCHEM_COMPONENT_COUNT>
1

>  <PUBCHEM_CACTVS_TAUTO_COUNT>
-1

>  <PUBCHEM_CONFORMER_ID>
08BAF96800000001

>  <PUBCHEM_MMFF94_ENERGY>
79.4752

>  <PUBCHEM_FEATURE_SELFOVERLAP>
40.726

>  <PUBCHEM_SHAPE_FINGERPRINT>
10618630 7 18341613698268220381
10906281 52 18338248131798941088
10989021 7 18412263960430680001
11471102 20 18337103583581741181
11543360 7 15574718018898278163
11578080 2 17169801493433977332
11680986 33 18120093037852649769
116883 192 18342176639911710805
11796584 16 17312817169650013451
12236239 1 17603585189000875162
12363563 72 18409169908966532467
12553582 1 18409736153291914011
12707595 3 18335143124137036947
12788726 201 18336274452903647088
13464513 79 18273212032038133614
13538477 17 17899415290401747680
13675066 3 17704078404264298723
14022347 108 18336560338542979355
14115302 16 17458346355195642058
14178342 30 18125998269960877704
14181834 199 18194113242966405653
14252887 29 18273497874875284466
14787075 74 17896315995062158930
15375462 189 18041001704580682913
15501101 241 17489871527080948338
15848700 24 18342452651573586607
15848702 151 17846786195496390095
16752209 62 18261108517786999419
16945 1 18410009935712996794
17357779 13 18271795792484402501
17492 54 18193014796765014436
1813 80 18343026592364136133
18186145 218 18261107517697877423
18222031 100 18343576369737535991
19078846 21 18335423435288399801
200 152 17676489423586471418
20097449 115 18409167722844087441
20233049 118 18113615689999000999
20339313 130 18340774835542380353
20344682 1 17988924466240073030
20369508 70 18260818349991667051
20510252 161 18340482253854102048
20645477 70 18267296720132240079
20871998 22 18343303634713057679
21029758 11 18410007745474828633
21029758 27 18335707151968896421
21296965 67 18410570678148192921
21304303 282 17179360466894726700
21524375 3 17258494977277546073
22079108 93 11169918264922385079
221490 88 18047474710318295227
22182313 1 18058724685295851372
22620623 9 17842019713673884468
22802520 49 17770505227125163718
23352939 185 18130803277872364760
23402539 116 18340477889840508766
23419403 2 17972283391828858156
23557571 272 18271528590058237572
23559900 14 18186803608619851514
2748010 2 18338782473086298253
3060560 45 18200599227414081550
3071541 250 18409737295463168332
34934 24 18194959867067635332
449060 23 18272654527944760567
537710 114 18040151812120512770
58734987 36 18410013268591631916
58734987 43 18409730707035797984
5902787 121 18262514913423531059
5939293 188 18267861868544615672
6442390 28 17192367633395462097
68521 5 18335980865950525669
7164475 11 18044090164213630062
7364860 26 18198624530448436385
7495541 125 17969230091330964779
81228 2 18266752276491472104
83771 10 17988929941932952678
8863177 126 17751936950224599043
9971528 1 18060421317853113551

>  <PUBCHEM_SHAPE_MULTIPOLES>
360.24
7.36
2.56
1.26
4.16
2.89
0.01
-4.74
0.36
0.6
0.14
-0.95
-0.54
0.28

>  <PUBCHEM_SHAPE_SELFOVERLAP>
752.155

>  <PUBCHEM_SHAPE_VOLUME>
199.2

>  <PUBCHEM_COORDINATE_TYPE>
2
5
10

$$$$
