146427045
 OpenBabel01182520543D

 18 18  0  0  0  0  0  0  0  0999 V2000
    3.1941   -2.2434    0.1393 Br  0  0  0  0  0  0  0  0  0  0  0  0
   -2.3892    0.8010    0.6358 O   0  0  0  0  0  0  0  0  0  0  0  0
    1.6796    1.5999   -0.1797 N   0  0  0  0  0  0  0  0  0  0  0  0
   -0.5132    2.5011   -0.1672 N   0  0  0  0  0  0  0  0  0  0  0  0
   -2.1443   -1.2976   -0.3336 N   0  0  0  0  0  0  0  0  0  0  0  0
   -0.2202    0.1241    0.0596 C   0  0  0  0  0  0  0  0  0  0  0  0
    0.3487    1.3781   -0.0942 C   0  0  0  0  0  0  0  0  0  0  0  0
    0.6313   -0.9728    0.1304 C   0  0  0  0  0  0  0  0  0  0  0  0
    2.0066   -0.7845    0.0471 C   0  0  0  0  0  0  0  0  0  0  0  0
    2.4760    0.5099   -0.1064 C   0  0  0  0  0  0  0  0  0  0  0  0
   -1.6593   -0.0825    0.1483 C   0  0  0  0  0  0  0  0  0  0  0  0
   -3.4102   -1.5333   -0.2796 C   0  0  0  0  0  0  0  0  0  0  0  0
    0.2386   -1.9781    0.2624 H   0  0  0  0  0  0  0  0  0  0  0  0
    3.5380    0.7248   -0.1782 H   0  0  0  0  0  0  0  0  0  0  0  0
   -1.4309    2.3814   -0.5776 H   0  0  0  0  0  0  0  0  0  0  0  0
   -0.0677    3.4047   -0.2734 H   0  0  0  0  0  0  0  0  0  0  0  0
   -3.7997   -2.4911   -0.6585 H   0  0  0  0  0  0  0  0  0  0  0  0
   -4.1510   -0.8265    0.1293 H   0  0  0  0  0  0  0  0  0  0  0  0
  1  9  1  0  0  0  0
  2 11  2  0  0  0  0
  3  7  1  0  0  0  0
  3 10  2  0  0  0  0
  4  7  1  0  0  0  0
  4 15  1  0  0  0  0
  4 16  1  0  0  0  0
  5 11  1  0  0  0  0
  5 12  2  0  0  0  0
  6  7  2  0  0  0  0
  6  8  1  0  0  0  0
  6 11  1  0  0  0  0
  8  9  2  0  0  0  0
  8 13  1  0  0  0  0
  9 10  1  0  0  0  0
 10 14  1  0  0  0  0
 12 17  1  0  0  0  0
 12 18  1  0  0  0  0
M  END
>  <PUBCHEM_COMPOUND_CID>
146427045

>  <PUBCHEM_CONFORMER_RMSD>
0.6

>  <PUBCHEM_CONFORMER_DIVERSEORDER>
1
3
6
7
4
2
5

>  <PUBCHEM_MMFF94_PARTIAL_CHARGES>
18
1 -0.11
10 0.16
11 0.69
12 0.33
13 0.15
14 0.15
15 0.4
16 0.4
17 0.06
18 0.06
2 -0.57
3 -0.62
4 -0.9
5 -0.66
6 0.09
7 0.41
8 -0.15
9 0.11

>  <PUBCHEM_EFFECTIVE_ROTOR_COUNT>
2

>  <PUBCHEM_PHARMACOPHORE_FEATURES>
8
1 1 hydrophobe
1 2 acceptor
1 3 acceptor
1 4 cation
1 4 donor
1 5 acceptor
1 5 donor
6 3 6 7 8 9 10 rings

>  <PUBCHEM_HEAVY_ATOM_COUNT>
12

>  <PUBCHEM_ATOM_DEF_STEREO_COUNT>
0

>  <PUBCHEM_ATOM_UDEF_STEREO_COUNT>
0

>  <PUBCHEM_BOND_DEF_STEREO_COUNT>
0

>  <PUBCHEM_BOND_UDEF_STEREO_COUNT>
0

>  <PUBCHEM_ISOTOPIC_ATOM_COUNT>
0

>  <PUBCHEM_COMPONENT_COUNT>
1

>  <PUBCHEM_CACTVS_TAUTO_COUNT>
-1

>  <PUBCHEM_CONFORMER_ID>
08BA4CA500000001

>  <PUBCHEM_MMFF94_ENERGY>
41.0597

>  <PUBCHEM_FEATURE_SELFOVERLAP>
40.641

>  <PUBCHEM_SHAPE_FINGERPRINT>
11769659 78 18342453742252887882
12423570 1 18124892161020533944
12897270 3 18193838369401823439
14128692 85 18341618130658671512
14576447 43 18054782042873634663
15442244 35 18412267199189228281
15477762 27 18266173027522310207
15757776 16 18266733765240312110
16945 1 18121787380717687129
17990270 104 18408884070207928146
18185500 45 18339929315258619593
193761 8 18337952286109720652
20645477 70 18264197179674358831
20724930 33 18340200778772110250
20871998 184 18057596573523439022
20871998 22 18341898442053153662
21040471 1 17328868106500735740
21501502 16 18411705365500009888
21501925 9 18339067268198991650
23463225 33 18412266129357392575
23552423 10 18334301971834782484
23559900 14 17693088571224191086
241688 4 18409166593135768073
257057 1 18411125931403941371
2748010 2 18410854364932626477
29004967 10 18262520410870718057
63268167 104 18337110167487096065
8030462 33 18266188394698738117
81228 2 18263078812480367633

>  <PUBCHEM_SHAPE_MULTIPOLES>
232.08
4.86
2.43
0.65
0.32
0.45
-0.02
-3.57
0.01
-0.23
0.17
0.03
-0.04
-0.38

>  <PUBCHEM_SHAPE_SELFOVERLAP>
472.362

>  <PUBCHEM_SHAPE_VOLUME>
138.4

>  <PUBCHEM_COORDINATE_TYPE>
2
5
10

$$$$
