146517600
 OpenBabel01182520543D

 22 22  0  0  0  0  0  0  0  0999 V2000
    2.2701    0.4161    0.9574 O   0  0  0  0  0  0  0  0  0  0  0  0
   -1.7351   -0.8646    0.4181 N   0  0  0  0  0  0  0  0  0  0  0  0
    0.4345   -1.5918    0.8146 N   0  0  0  0  0  0  0  0  0  0  0  0
    0.0811    0.7046    0.1282 C   0  0  0  0  0  0  0  0  0  0  0  0
   -0.4209   -0.5481    0.4421 C   0  0  0  0  0  0  0  0  0  0  0  0
   -0.8238    1.6964   -0.2337 C   0  0  0  0  0  0  0  0  0  0  0  0
    1.5049    1.0023    0.1670 C   0  0  0  0  0  0  0  0  0  0  0  0
   -2.1839    1.4093   -0.2699 C   0  0  0  0  0  0  0  0  0  0  0  0
    2.0957    2.0513   -0.7683 C   0  0  0  0  0  0  0  0  0  0  0  0
   -2.5846    0.1251    0.0618 C   0  0  0  0  0  0  0  0  0  0  0  0
    0.8786   -2.3337   -0.1496 C   0  0  0  0  0  0  0  0  0  0  0  0
    0.4834   -2.0668   -1.5678 C   0  0  0  0  0  0  0  0  0  0  0  0
   -0.4996    2.7036   -0.4795 H   0  0  0  0  0  0  0  0  0  0  0  0
   -2.9078    2.1673   -0.5461 H   0  0  0  0  0  0  0  0  0  0  0  0
    2.0534    3.0331   -0.2908 H   0  0  0  0  0  0  0  0  0  0  0  0
    1.5599    2.0673   -1.7212 H   0  0  0  0  0  0  0  0  0  0  0  0
    3.1372    1.7924   -0.9817 H   0  0  0  0  0  0  0  0  0  0  0  0
   -3.6341   -0.1498    0.0496 H   0  0  0  0  0  0  0  0  0  0  0  0
    1.5964   -3.1428    0.0551 H   0  0  0  0  0  0  0  0  0  0  0  0
   -0.5858   -1.8948   -1.6995 H   0  0  0  0  0  0  0  0  0  0  0  0
    1.0632   -1.2305   -1.9675 H   0  0  0  0  0  0  0  0  0  0  0  0
    0.7402   -2.9545   -2.1556 H   0  0  0  0  0  0  0  0  0  0  0  0
  1  7  2  0  0  0  0
  2  5  1  0  0  0  0
  2 10  2  0  0  0  0
  3  5  1  0  0  0  0
  3 11  2  0  0  0  0
  4  5  2  0  0  0  0
  4  6  1  0  0  0  0
  4  7  1  0  0  0  0
  6  8  2  0  0  0  0
  6 13  1  0  0  0  0
  7  9  1  0  0  0  0
  8 10  1  0  0  0  0
  8 14  1  0  0  0  0
  9 15  1  0  0  0  0
  9 16  1  0  0  0  0
  9 17  1  0  0  0  0
 10 18  1  0  0  0  0
 11 12  1  0  0  0  0
 11 19  1  0  0  0  0
 12 20  1  0  0  0  0
 12 21  1  0  0  0  0
 12 22  1  0  0  0  0
M  END
>  <PUBCHEM_COMPOUND_CID>
146517600

>  <PUBCHEM_CONFORMER_RMSD>
0.6

>  <PUBCHEM_CONFORMER_DIVERSEORDER>
1
3
6
7
2
4
5

>  <PUBCHEM_MMFF94_PARTIAL_CHARGES>
16
1 -0.57
10 0.16
11 0.33
12 0.06
13 0.15
14 0.15
18 0.15
19 0.06
2 -0.62
3 -0.63
4 0.09
5 0.49
6 -0.15
7 0.42
8 -0.15
9 0.06

>  <PUBCHEM_EFFECTIVE_ROTOR_COUNT>
2

>  <PUBCHEM_PHARMACOPHORE_FEATURES>
4
1 1 acceptor
1 2 acceptor
1 3 acceptor
6 2 4 5 6 8 10 rings

>  <PUBCHEM_HEAVY_ATOM_COUNT>
12

>  <PUBCHEM_ATOM_DEF_STEREO_COUNT>
0

>  <PUBCHEM_ATOM_UDEF_STEREO_COUNT>
0

>  <PUBCHEM_BOND_DEF_STEREO_COUNT>
1

>  <PUBCHEM_BOND_UDEF_STEREO_COUNT>
0

>  <PUBCHEM_ISOTOPIC_ATOM_COUNT>
0

>  <PUBCHEM_COMPONENT_COUNT>
1

>  <PUBCHEM_CACTVS_TAUTO_COUNT>
-1

>  <PUBCHEM_CONFORMER_ID>
08BBAE6000000001

>  <PUBCHEM_MMFF94_ENERGY>
41.3477

>  <PUBCHEM_FEATURE_SELFOVERLAP>
20.35

>  <PUBCHEM_SHAPE_FINGERPRINT>
1 1 18341888580586260602
100427 49 17835249938903162531
10702982 57 18057866108374801294
12423570 1 18269823259923474339
12524768 44 17836920101508505587
12696612 119 18190740838740132561
12716758 59 18050863405059940900
13024252 1 16519893565888924368
14120999 15 17400948309351615324
161256 15 18265350421099550627
16945 1 18261104158337080921
17990270 104 18194958543964344667
18185500 45 17038947806725460392
193761 8 18264488386682328649
20233049 118 16743394124998398597
20511035 2 18266156409992849994
20645476 183 17605287370339028934
20645477 70 18268136579854949959
20871998 184 17764883776222473982
21040471 1 18266174118217007216
21524375 3 18337102483600816473
21922407 69 14274328885202860097
22802520 49 17908451360542573860
23419403 2 13635569520527836969
23552423 10 18262802852410112689
23559900 14 15028636334542269455
241688 4 17544194878767388248
2748010 2 18263926712128589233
5084963 1 18412262865192641504
535629 181 17400356149362608478
53812654 25 17762887062948144896
58734985 102 17842274761711385495
7364860 26 18128248991600588801
81228 2 17477198800682343282

>  <PUBCHEM_SHAPE_MULTIPOLES>
231.12
2.92
2.65
1.01
1.3
0.34
-0.23
-0.87
0
-1.47
-0.7
-0.39
0.31
0.22

>  <PUBCHEM_SHAPE_SELFOVERLAP>
479.289

>  <PUBCHEM_SHAPE_VOLUME>
132

>  <PUBCHEM_COORDINATE_TYPE>
2
5
10

$$$$
