146517038
 OpenBabel01182520543D

 16 17  0  0  0  0  0  0  0  0999 V2000
   -4.0419    0.1081   -0.0007 I   0  0  0  0  0  0  0  0  0  0  0  0
   -1.3982    2.0394    0.0001 O   0  0  0  0  0  0  0  0  0  0  0  0
   -1.9405   -0.2357    0.0000 N   0  0  0  0  0  0  0  0  0  0  0  0
   -0.2212   -1.8821    0.0003 N   0  0  0  0  0  0  0  0  0  0  0  0
    2.0214   -1.2513   -0.0003 N   0  0  0  0  0  0  0  0  0  0  0  0
    0.3640    0.4949    0.0004 C   0  0  0  0  0  0  0  0  0  0  0  0
    0.7290   -0.8486    0.0001 C   0  0  0  0  0  0  0  0  0  0  0  0
   -1.0688    0.8578    0.0003 C   0  0  0  0  0  0  0  0  0  0  0  0
    1.3618    1.4679    0.0002 C   0  0  0  0  0  0  0  0  0  0  0  0
   -1.4671   -1.5381    0.0002 C   0  0  0  0  0  0  0  0  0  0  0  0
    2.6935    1.0726   -0.0002 C   0  0  0  0  0  0  0  0  0  0  0  0
    2.9680   -0.2848   -0.0005 C   0  0  0  0  0  0  0  0  0  0  0  0
    1.1216    2.5269    0.0003 H   0  0  0  0  0  0  0  0  0  0  0  0
   -2.2529   -2.3088    0.0003 H   0  0  0  0  0  0  0  0  0  0  0  0
    3.4931    1.8045   -0.0004 H   0  0  0  0  0  0  0  0  0  0  0  0
    3.9921   -0.6436   -0.0008 H   0  0  0  0  0  0  0  0  0  0  0  0
  1  3  1  0  0  0  0
  2  8  2  0  0  0  0
  3  8  1  0  0  0  0
  3 10  1  0  0  0  0
  4  7  1  0  0  0  0
  4 10  2  0  0  0  0
  5  7  1  0  0  0  0
  5 12  2  0  0  0  0
  6  7  2  0  0  0  0
  6  8  1  0  0  0  0
  6  9  1  0  0  0  0
  9 11  2  0  0  0  0
  9 13  1  0  0  0  0
 10 14  1  0  0  0  0
 11 12  1  0  0  0  0
 11 15  1  0  0  0  0
 12 16  1  0  0  0  0
M  END
>  <PUBCHEM_COMPOUND_CID>
146517038

>  <PUBCHEM_CONFORMER_RMSD>
0.4

>  <PUBCHEM_CONFORMER_DIVERSEORDER>
1

>  <PUBCHEM_MMFF94_PARTIAL_CHARGES>
16
1 0.04
10 0.45
11 -0.15
12 0.16
13 0.15
14 0.06
15 0.15
16 0.15
2 -0.57
3 -0.16
4 -0.63
5 -0.62
6 0.09
7 0.49
8 0.54
9 -0.15

>  <PUBCHEM_EFFECTIVE_ROTOR_COUNT>
0

>  <PUBCHEM_PHARMACOPHORE_FEATURES>
4
1 2 acceptor
1 5 acceptor
6 3 4 6 7 8 10 rings
6 5 6 7 9 11 12 rings

>  <PUBCHEM_HEAVY_ATOM_COUNT>
12

>  <PUBCHEM_ATOM_DEF_STEREO_COUNT>
0

>  <PUBCHEM_ATOM_UDEF_STEREO_COUNT>
0

>  <PUBCHEM_BOND_DEF_STEREO_COUNT>
0

>  <PUBCHEM_BOND_UDEF_STEREO_COUNT>
0

>  <PUBCHEM_ISOTOPIC_ATOM_COUNT>
0

>  <PUBCHEM_COMPONENT_COUNT>
1

>  <PUBCHEM_CACTVS_TAUTO_COUNT>
-1

>  <PUBCHEM_CONFORMER_ID>
08BBAC2E00000001

>  <PUBCHEM_MMFF94_ENERGY>
30.7224

>  <PUBCHEM_FEATURE_SELFOVERLAP>
20.333

>  <PUBCHEM_SHAPE_FINGERPRINT>
10967382 1 18410575089016068487
11132069 177 18342733048344720443
11471102 20 18410287000217016077
12423570 1 17917426484517714343
12897270 3 18411138077777163340
13380535 76 18411417323470941318
14325111 11 18410575054846383585
16945 1 18410573998247440550
17844478 74 18113344115333104321
18185500 45 18050006893801310870
193761 8 17834113044101588199
19973954 147 18410858767611714846
20645476 183 17750532838903948686
20645477 70 18339635634649628727
20871998 184 18129386075539298278
21040471 1 18338798914463180704
21501502 16 18266180534824320225
22802520 49 18128278781715436710
23402539 116 18342725317561778413
23402655 69 18341601608695009285
23463225 33 18408322181053361107
23552423 10 18188772889320603390
23559900 14 18127134062185393974
2748010 2 17979074117296210486
5084963 1 18201999885037277282
528886 8 18411695530098748763
53812653 166 18342735273153760024

>  <PUBCHEM_SHAPE_MULTIPOLES>
238.08
5.35
1.86
0.62
3.24
0.04
0
-0.55
0
-0.08
0
0.11
-0.01
0

>  <PUBCHEM_SHAPE_SELFOVERLAP>
493.765

>  <PUBCHEM_SHAPE_VOLUME>
140.9

>  <PUBCHEM_COORDINATE_TYPE>
2
5
10

$$$$
