148048379
 OpenBabel01182520543D

 29 29  0  0  0  0  0  0  0  0999 V2000
    3.1971   -0.8462   -1.8259 O   0  0  0  0  0  0  0  0  0  0  0  0
    1.1759    1.8944    1.1168 N   0  0  0  0  0  0  0  0  0  0  0  0
    3.4306    1.1935    0.9051 N   0  0  0  0  0  0  0  0  0  0  0  0
    2.9851   -2.1348    0.0591 N   0  0  0  0  0  0  0  0  0  0  0  0
   -4.0616    1.4074   -1.2116 N   0  0  0  0  0  0  0  0  0  0  0  0
   -2.1832   -1.7527    0.7625 N   0  0  0  0  0  0  0  0  0  0  0  0
   -0.5864    0.6369    0.0407 C   0  0  0  0  0  0  0  0  0  0  0  0
    1.6994   -0.0790   -0.1780 C   0  0  0  0  0  0  0  0  0  0  0  0
    0.3503   -0.2588   -0.4631 C   0  0  0  0  0  0  0  0  0  0  0  0
   -2.0201    0.4739   -0.2416 C   0  0  0  0  0  0  0  0  0  0  0  0
    2.0572    1.0035    0.6095 C   0  0  0  0  0  0  0  0  0  0  0  0
   -0.1263    1.6873    0.8184 C   0  0  0  0  0  0  0  0  0  0  0  0
    2.6738   -1.0204   -0.7126 C   0  0  0  0  0  0  0  0  0  0  0  0
   -2.7463   -0.7643    0.1549 C   0  0  0  0  0  0  0  0  0  0  0  0
   -2.7420    1.4098   -0.8797 C   0  0  0  0  0  0  0  0  0  0  0  0
   -3.1036   -2.8502    1.0455 C   0  0  0  0  0  0  0  0  0  0  0  0
    0.0358   -1.0942   -1.0852 H   0  0  0  0  0  0  0  0  0  0  0  0
   -0.8041    2.4199    1.2470 H   0  0  0  0  0  0  0  0  0  0  0  0
   -3.8178   -0.8250   -0.0898 H   0  0  0  0  0  0  0  0  0  0  0  0
   -2.2725    2.3319   -1.2099 H   0  0  0  0  0  0  0  0  0  0  0  0
    4.0287    0.3793    0.9734 H   0  0  0  0  0  0  0  0  0  0  0  0
    3.6622    1.9952    1.4792 H   0  0  0  0  0  0  0  0  0  0  0  0
    2.5618   -2.2971    0.9673 H   0  0  0  0  0  0  0  0  0  0  0  0
    3.6522   -2.8259   -0.2675 H   0  0  0  0  0  0  0  0  0  0  0  0
   -4.4425    2.2101   -1.6979 H   0  0  0  0  0  0  0  0  0  0  0  0
   -4.6752    0.6385   -0.9855 H   0  0  0  0  0  0  0  0  0  0  0  0
   -3.5164   -3.2724    0.1230 H   0  0  0  0  0  0  0  0  0  0  0  0
   -2.5602   -3.6477    1.5615 H   0  0  0  0  0  0  0  0  0  0  0  0
   -3.9204   -2.5274    1.6999 H   0  0  0  0  0  0  0  0  0  0  0  0
  1 13  2  0  0  0  0
  2 11  1  0  0  0  0
  2 12  2  0  0  0  0
  3 11  1  0  0  0  0
  3 21  1  0  0  0  0
  3 22  1  0  0  0  0
  4 13  1  0  0  0  0
  4 23  1  0  0  0  0
  4 24  1  0  0  0  0
  5 15  1  0  0  0  0
  5 25  1  0  0  0  0
  5 26  1  0  0  0  0
  6 14  2  0  0  0  0
  6 16  1  0  0  0  0
  7  9  2  0  0  0  0
  7 10  1  0  0  0  0
  7 12  1  0  0  0  0
  8  9  1  0  0  0  0
  8 11  2  0  0  0  0
  8 13  1  0  0  0  0
  9 17  1  0  0  0  0
 10 14  1  0  0  0  0
 10 15  2  3  0  0  0
 12 18  1  0  0  0  0
 14 19  1  0  0  0  0
 15 20  1  0  0  0  0
 16 27  1  0  0  0  0
 16 28  1  0  0  0  0
 16 29  1  0  0  0  0
M  END
>  <PUBCHEM_COMPOUND_CID>
148048379

>  <PUBCHEM_CONFORMER_RMSD>
0.6

>  <PUBCHEM_CONFORMER_DIVERSEORDER>
1
2
26
25
8
3
4
24
17
14
6
5
21
7
23
9
20
22
18
16
11
13
15
10
19
12

>  <PUBCHEM_MMFF94_PARTIAL_CHARGES>
26
1 -0.57
10 -0.01
11 0.41
12 0.16
13 0.54
14 0.38
15 -0.05
16 0.25
17 0.15
18 0.15
19 0.06
2 -0.62
20 0.15
21 0.4
22 0.4
23 0.37
24 0.37
25 0.4
26 0.4
3 -0.9
4 -0.8
5 -0.9
6 -0.7
7 0.03
8 0.09
9 -0.15

>  <PUBCHEM_EFFECTIVE_ROTOR_COUNT>
3

>  <PUBCHEM_PHARMACOPHORE_FEATURES>
9
1 1 acceptor
1 2 acceptor
1 3 cation
1 3 donor
1 4 donor
1 5 cation
1 5 donor
1 6 acceptor
6 2 7 8 9 11 12 rings

>  <PUBCHEM_HEAVY_ATOM_COUNT>
16

>  <PUBCHEM_ATOM_DEF_STEREO_COUNT>
0

>  <PUBCHEM_ATOM_UDEF_STEREO_COUNT>
0

>  <PUBCHEM_BOND_DEF_STEREO_COUNT>
0

>  <PUBCHEM_BOND_UDEF_STEREO_COUNT>
1

>  <PUBCHEM_ISOTOPIC_ATOM_COUNT>
0

>  <PUBCHEM_COMPONENT_COUNT>
1

>  <PUBCHEM_CACTVS_TAUTO_COUNT>
-1

>  <PUBCHEM_CONFORMER_ID>
08D309FB00000001

>  <PUBCHEM_MMFF94_ENERGY>
63.4812

>  <PUBCHEM_FEATURE_SELFOVERLAP>
45.671

>  <PUBCHEM_SHAPE_FINGERPRINT>
107287 299 18059576961637320040
11471102 22 18058736947253414498
116883 192 18117836827651136655
12138202 97 18261094293198316869
12202030 40 18409735092255364523
12363563 72 17774162271428965894
124424 183 18269832030093556054
12500047 106 18187642457975506223
12553582 1 18056493746307348314
13296908 3 18343305876664952071
14115302 16 18116156567145216126
14178342 30 17968084348231758627
14648413 74 18340756156603522769
15219456 202 18341891917628221553
15279308 132 18263358093150393261
15375358 24 18341879797325555328
16945 1 18266183824890627304
18186145 218 18266167345417896653
18380122 1 18051127287665698649
18522853 266 18113897147795777431
19049666 15 18411415116100149659
20279233 1 18410849962570107384
20281407 28 18263094351977882747
20645476 183 17531814541353433507
20645477 56 18187078447439859165
20645477 70 17917987265496430981
20715346 28 18342738558782473317
22169311 21 18409726257407338286
22182313 1 18271529787958545870
22943178 12 18412261765633443155
23557571 272 18260546778951493949
23559900 14 18337388237219463658
2748010 2 18343864441583254380
2838139 119 16734700639404087716
31174 14 17914908757814651195
539174 4 14690907349577516703
5493415 88 18341616997119913658
568465 68 17914329327887021336
5902787 121 18411135810282695394
6049 1 18339651134574299649
633830 44 18196915705333823133
74978 22 18336548226740290953
7615 1 15123509224510060177
81228 2 17555746399827249528
8809292 202 18339080389234150063
88987 49 17822284699794445773
9709674 26 18339634633510480071

>  <PUBCHEM_SHAPE_MULTIPOLES>
298.5
6.35
2.5
1.22
0.78
1.31
-0.21
1.46
-1.06
1.37
0.69
-0.25
-0.06
2.18

>  <PUBCHEM_SHAPE_SELFOVERLAP>
621.501

>  <PUBCHEM_SHAPE_VOLUME>
169

>  <PUBCHEM_COORDINATE_TYPE>
2
5
10

$$$$
