15154531
 OpenBabel01182520543D

 22 22  0  0  0  0  0  0  0  0999 V2000
    0.9010    1.2015   -1.1811 O   0  0  0  0  0  0  0  0  0  0  0  0
    1.5090   -0.8730   -0.3422 N   0  0  0  0  0  0  0  0  0  0  0  0
   -2.9492    0.7246    0.4972 N   0  0  0  0  0  0  0  0  0  0  0  0
   -1.1812    2.2493    0.0851 N   0  0  0  0  0  0  0  0  0  0  0  0
   -0.7974   -0.1049   -0.2286 C   0  0  0  0  0  0  0  0  0  0  0  0
   -1.6650    0.9173    0.1215 C   0  0  0  0  0  0  0  0  0  0  0  0
    0.5821    0.1345   -0.6294 C   0  0  0  0  0  0  0  0  0  0  0  0
   -1.2789   -1.4087   -0.1906 C   0  0  0  0  0  0  0  0  0  0  0  0
   -2.5946   -1.6473    0.1911 C   0  0  0  0  0  0  0  0  0  0  0  0
    2.9165   -0.7745   -0.6554 C   0  0  0  0  0  0  0  0  0  0  0  0
   -3.3817   -0.5561    0.5224 C   0  0  0  0  0  0  0  0  0  0  0  0
    3.6620   -0.1767    0.4518 C   0  0  0  0  0  0  0  0  0  0  0  0
    4.2776    0.3141    1.3582 C   0  0  0  0  0  0  0  0  0  0  0  0
   -0.6731   -2.2627   -0.4789 H   0  0  0  0  0  0  0  0  0  0  0  0
    1.2185   -1.6962    0.1752 H   0  0  0  0  0  0  0  0  0  0  0  0
   -2.9940   -2.6546    0.2213 H   0  0  0  0  0  0  0  0  0  0  0  0
    3.2746   -1.7888   -0.8577 H   0  0  0  0  0  0  0  0  0  0  0  0
    3.0415   -0.1815   -1.5672 H   0  0  0  0  0  0  0  0  0  0  0  0
   -4.4152   -0.6883    0.8248 H   0  0  0  0  0  0  0  0  0  0  0  0
   -0.2029    2.4147    0.2869 H   0  0  0  0  0  0  0  0  0  0  0  0
   -1.8403    2.9749    0.3403 H   0  0  0  0  0  0  0  0  0  0  0  0
    4.8233    0.7496    2.1623 H   0  0  0  0  0  0  0  0  0  0  0  0
  1  7  2  0  0  0  0
  2  7  1  0  0  0  0
  2 10  1  0  0  0  0
  2 15  1  0  0  0  0
  3  6  1  0  0  0  0
  3 11  2  0  0  0  0
  4  6  1  0  0  0  0
  4 20  1  0  0  0  0
  4 21  1  0  0  0  0
  5  6  2  0  0  0  0
  5  7  1  0  0  0  0
  5  8  1  0  0  0  0
  8  9  2  0  0  0  0
  8 14  1  0  0  0  0
  9 11  1  0  0  0  0
  9 16  1  0  0  0  0
 10 12  1  0  0  0  0
 10 17  1  0  0  0  0
 10 18  1  0  0  0  0
 11 19  1  0  0  0  0
 12 13  3  0  0  0  0
 13 22  1  0  0  0  0
M  END
>  <PUBCHEM_COMPOUND_CID>
15154531

>  <PUBCHEM_CONFORMER_RMSD>
0.6

>  <PUBCHEM_CONFORMER_DIVERSEORDER>
1
7
12
3
8
6
2
11
5
4
9
10

>  <PUBCHEM_MMFF94_PARTIAL_CHARGES>
20
1 -0.57
10 0.5
11 0.16
12 -0.2
13 -0.18
14 0.15
15 0.37
16 0.15
19 0.15
2 -0.73
20 0.4
21 0.4
22 0.18
3 -0.62
4 -0.9
5 0.09
6 0.41
7 0.54
8 -0.15
9 -0.15

>  <PUBCHEM_EFFECTIVE_ROTOR_COUNT>
3

>  <PUBCHEM_PHARMACOPHORE_FEATURES>
7
1 1 acceptor
1 13 hydrophobe
1 2 donor
1 3 acceptor
1 4 cation
1 4 donor
6 3 5 6 8 9 11 rings

>  <PUBCHEM_HEAVY_ATOM_COUNT>
13

>  <PUBCHEM_ATOM_DEF_STEREO_COUNT>
0

>  <PUBCHEM_ATOM_UDEF_STEREO_COUNT>
0

>  <PUBCHEM_BOND_DEF_STEREO_COUNT>
0

>  <PUBCHEM_BOND_UDEF_STEREO_COUNT>
0

>  <PUBCHEM_ISOTOPIC_ATOM_COUNT>
0

>  <PUBCHEM_COMPONENT_COUNT>
1

>  <PUBCHEM_CACTVS_TAUTO_COUNT>
5

>  <PUBCHEM_CONFORMER_ID>
00E73D6300000001

>  <PUBCHEM_MMFF94_ENERGY>
36.861

>  <PUBCHEM_FEATURE_SELFOVERLAP>
35.52

>  <PUBCHEM_SHAPE_FINGERPRINT>
10130415 120 18261684769554777835
11132069 177 18413110554192351555
11137873 295 13551745180841044184
12251169 10 18409162221381007608
12382932 28 18412547604339313026
12932764 1 17632859707332996486
13296909 8 18411694378947312612
15219456 202 17846782871376267302
16945 1 18336562524955275975
20361792 2 16805040726905687598
20510252 161 18200879461361638225
20528008 55 18201715141500809354
20645464 45 17846501417494597959
20645477 70 13912321270654130490
20715346 28 18059861623432213966
20871998 184 18201726149860971415
21501925 9 18337110171644939303
21650355 55 18338230565524930467
22959321 60 18059848498265306490
23402539 116 18272925030039666063
23403322 49 12540961959878690784
23552423 10 17831317355747598701
23559900 14 18270405984344085478
2748010 2 17759257197471640399
53812654 25 18341901847887944319
90316 7 18187645756415905100
9882013 296 18335697291214653848

>  <PUBCHEM_SHAPE_MULTIPOLES>
246.72
6.74
1.62
0.97
5.46
0.42
0.05
-0.85
2.71
-1.09
-0.08
0.72
0.09
0.23

>  <PUBCHEM_SHAPE_SELFOVERLAP>
509.436

>  <PUBCHEM_SHAPE_VOLUME>
139.3

>  <PUBCHEM_COORDINATE_TYPE>
2
5
10

$$$$
