152476187
 OpenBabel01182520543D

 32 33  0  0  0  0  0  0  0  0999 V2000
   -6.2351    0.1126    0.0129 O   0  0  0  0  0  0  0  0  0  0  0  0
    3.5836    0.3395   -0.0000 N   0  0  0  0  0  0  0  0  0  0  0  0
    0.0003    1.2629   -0.0019 N   0  0  0  0  0  0  0  0  0  0  0  0
   -1.5140   -0.5622   -0.0031 N   0  0  0  0  0  0  0  0  0  0  0  0
   -5.4147   -2.0288   -0.0022 N   0  0  0  0  0  0  0  0  0  0  0  0
    3.5209   -1.1421   -0.0007 C   0  0  0  0  0  0  0  0  0  0  0  0
    4.8826   -1.7926    0.0012 C   0  0  0  0  0  0  0  0  0  0  0  0
    4.8205    0.9768    0.0010 C   0  0  0  0  0  0  0  0  0  0  0  0
    2.4088    1.0470   -0.0007 C   0  0  0  0  0  0  0  0  0  0  0  0
    6.0283   -1.0953    0.0024 C   0  0  0  0  0  0  0  0  0  0  0  0
    6.0016    0.3445    0.0022 C   0  0  0  0  0  0  0  0  0  0  0  0
    1.1628    0.5627   -0.0015 C   0  0  0  0  0  0  0  0  0  0  0  0
   -1.3168    0.7752   -0.0023 C   0  0  0  0  0  0  0  0  0  0  0  0
   -2.3395    1.7101   -0.0013 C   0  0  0  0  0  0  0  0  0  0  0  0
   -3.8920   -0.1269   -0.0007 C   0  0  0  0  0  0  0  0  0  0  0  0
   -3.6489    1.2423   -0.0008 C   0  0  0  0  0  0  0  0  0  0  0  0
   -2.7999   -0.9796   -0.0021 C   0  0  0  0  0  0  0  0  0  0  0  0
   -5.2484   -0.6460   -0.0025 C   0  0  0  0  0  0  0  0  0  0  0  0
    2.9853   -1.4901   -0.8928 H   0  0  0  0  0  0  0  0  0  0  0  0
    2.9827   -1.4908    0.8896 H   0  0  0  0  0  0  0  0  0  0  0  0
    4.9203   -2.8782    0.0015 H   0  0  0  0  0  0  0  0  0  0  0  0
    4.7807    2.0615    0.0010 H   0  0  0  0  0  0  0  0  0  0  0  0
    2.5485    2.1252   -0.0006 H   0  0  0  0  0  0  0  0  0  0  0  0
    6.9901   -1.5949    0.0037 H   0  0  0  0  0  0  0  0  0  0  0  0
    6.9384    0.8884    0.0030 H   0  0  0  0  0  0  0  0  0  0  0  0
    0.9986   -0.5093   -0.0015 H   0  0  0  0  0  0  0  0  0  0  0  0
    0.0986    2.2732   -0.0021 H   0  0  0  0  0  0  0  0  0  0  0  0
   -2.1449    2.7777   -0.0009 H   0  0  0  0  0  0  0  0  0  0  0  0
   -4.4635    1.9614   -0.0007 H   0  0  0  0  0  0  0  0  0  0  0  0
   -2.8737   -2.0597   -0.0026 H   0  0  0  0  0  0  0  0  0  0  0  0
   -4.6674   -2.7114   -0.0086 H   0  0  0  0  0  0  0  0  0  0  0  0
   -6.3520   -2.4187    0.0036 H   0  0  0  0  0  0  0  0  0  0  0  0
  1 18  2  0  0  0  0
  2  6  1  0  0  0  0
  2  8  1  0  0  0  0
  2  9  1  0  0  0  0
  3 12  1  0  0  0  0
  3 13  1  0  0  0  0
  3 27  1  0  0  0  0
  4 13  2  0  0  0  0
  4 17  1  0  0  0  0
  5 18  1  0  0  0  0
  5 31  1  0  0  0  0
  5 32  1  0  0  0  0
  6  7  1  0  0  0  0
  6 19  1  0  0  0  0
  6 20  1  0  0  0  0
  7 10  2  0  0  0  0
  7 21  1  0  0  0  0
  8 11  2  0  0  0  0
  8 22  1  0  0  0  0
  9 12  2  3  0  0  0
  9 23  1  0  0  0  0
 10 11  1  0  0  0  0
 10 24  1  0  0  0  0
 11 25  1  0  0  0  0
 12 26  1  0  0  0  0
 13 14  1  0  0  0  0
 14 16  2  0  0  0  0
 14 28  1  0  0  0  0
 15 16  1  0  0  0  0
 15 17  2  0  0  0  0
 15 18  1  0  0  0  0
 16 29  1  0  0  0  0
 17 30  1  0  0  0  0
M  END
>  <PUBCHEM_COMPOUND_CID>
152476187

>  <PUBCHEM_CONFORMER_RMSD>
0.6

>  <PUBCHEM_CONFORMER_DIVERSEORDER>
1
33
35
19
36
10
6
27
26
14
29
21
15
20
12
11
31
2
32
13
9
18
24
17
8
34
16
3
23
25
22
5
28
4
7
30

>  <PUBCHEM_MMFF94_PARTIAL_CHARGES>
30
1 -0.57
10 -0.15
11 -0.15
12 -0.05
13 0.41
14 -0.15
15 0.09
16 -0.15
17 0.16
18 0.54
2 -0.57
21 0.15
22 0.15
23 0.15
24 0.15
25 0.15
26 0.15
27 0.4
28 0.15
29 0.15
3 -0.6
30 0.15
31 0.37
32 0.37
4 -0.62
5 -0.8
6 0.51
7 -0.29
8 -0.05
9 -0.05

>  <PUBCHEM_EFFECTIVE_ROTOR_COUNT>
4.4

>  <PUBCHEM_PHARMACOPHORE_FEATURES>
7
1 1 acceptor
1 2 cation
1 3 donor
1 5 donor
3 3 4 13 cation
6 2 6 7 8 10 11 rings
6 4 13 14 15 16 17 rings

>  <PUBCHEM_HEAVY_ATOM_COUNT>
18

>  <PUBCHEM_ATOM_DEF_STEREO_COUNT>
0

>  <PUBCHEM_ATOM_UDEF_STEREO_COUNT>
0

>  <PUBCHEM_BOND_DEF_STEREO_COUNT>
0

>  <PUBCHEM_BOND_UDEF_STEREO_COUNT>
1

>  <PUBCHEM_ISOTOPIC_ATOM_COUNT>
0

>  <PUBCHEM_COMPONENT_COUNT>
1

>  <PUBCHEM_CACTVS_TAUTO_COUNT>
-1

>  <PUBCHEM_CONFORMER_ID>
09169A1B00000001

>  <PUBCHEM_MMFF94_ENERGY>
54.2956

>  <PUBCHEM_FEATURE_SELFOVERLAP>
35.521

>  <PUBCHEM_SHAPE_FINGERPRINT>
10354089 29 12391513088056535764
10968037 39 18334577966296066893
11315181 36 18412830195991969425
11524674 6 16630527353900159143
11578080 2 16807557376352882983
117890 112 9007060166683654138
12107183 9 17690844458636341272
12236239 1 18260268559528039757
12516196 113 18273213114522834112
12596602 18 17632300068714873610
12616971 3 16415470575888243208
13073987 5 18343582906857134776
13167823 11 18411135818845944140
13288520 33 18411138039523592157
13533116 47 18411702127480082904
13551218 46 18342459209836128111
13685833 64 18408608075825836539
13862211 1 18343018934949306295
1420 363 18412827988388912804
14461889 52 18265608961320270400
15183329 4 18335137557685198771
15196674 1 18410855426100836742
17844677 252 18411987944658401224
17857418 61 18411136939426466871
18006028 8 18131911568534599873
200 152 18272932717282104368
20374829 77 18410011048499650167
20645477 70 18339080394093905686
20767249 13 18408322189928275212
20767249 213 9511461121757592337
21236236 1 18341332198229178833
21267235 1 18410018731827039962
2215653 11 18409722967836903655
22224240 67 16558743525604519622
22896161 15 18410856598906593836
2297311 6 18272095984823321092
23402539 116 18343578564908825693
23522609 53 18125753229192570473
23536379 177 18411419501098410481
23559900 14 18339072813139219729
23590187 198 18410013238990980373
239999 70 18272093782343576262
28498 318 18409445874285913175
2871803 45 18113898239292386306
29717793 49 17967816050425780276
3004659 81 18260267434926778288
335352 9 18410572895364128869
34797466 226 17703517679383758444
351380 3 18412259540903966734
3545911 37 18410856568757316316
4073 2 18041565840298772162
4214541 1 18410573955118744324
42788 4 18410855464513020740
4325135 7 18333454262009023980
4463277 17 18409448085571903017
465052 167 18202286905365432454
5104073 3 18201153252958341872
542803 24 13254794646725899192
559249 180 18336261237057071307
57483677 66 18410572889966556110
59755656 215 18334011662137094431
67856867 119 18263647427659488212
7495541 125 17917709140779119688
77779 3 18410856538724395112

>  <PUBCHEM_SHAPE_MULTIPOLES>
344.64
16.78
1.74
0.59
3.15
0.33
0
5.75
-0.02
-0.22
0
0.05
0
0

>  <PUBCHEM_SHAPE_SELFOVERLAP>
727.57

>  <PUBCHEM_SHAPE_VOLUME>
190.3

>  <PUBCHEM_COORDINATE_TYPE>
2
5
10

$$$$
