153682203
 OpenBabel01182520543D

 27 28  0  0  0  0  0  0  0  0999 V2000
   -3.7390   -0.8769   -1.1326 F   0  0  0  0  0  0  0  0  0  0  0  0
   -4.6158   -0.1114    0.7128 F   0  0  0  0  0  0  0  0  0  0  0  0
   -0.2073    2.3672   -0.5680 O   0  0  0  0  0  0  0  0  0  0  0  0
   -1.2261    0.3527   -0.0224 N   0  0  0  0  0  0  0  0  0  0  0  0
    2.8160   -1.0618   -0.8469 N   0  0  0  0  0  0  0  0  0  0  0  0
    4.9683   -1.1194    0.1726 N   0  0  0  0  0  0  0  0  0  0  0  0
   -3.4530   -0.3704    0.0886 C   0  0  0  0  0  0  0  0  0  0  0  0
   -2.5978   -1.3458    0.8749 C   0  0  0  0  0  0  0  0  0  0  0  0
   -2.5903    0.8647   -0.0486 C   0  0  0  0  0  0  0  0  0  0  0  0
   -1.1999   -1.0638    0.3435 C   0  0  0  0  0  0  0  0  0  0  0  0
   -0.1383    1.1785   -0.2621 C   0  0  0  0  0  0  0  0  0  0  0  0
    1.2047    0.5915   -0.1295 C   0  0  0  0  0  0  0  0  0  0  0  0
    2.1196    1.0961    0.7880 C   0  0  0  0  0  0  0  0  0  0  0  0
    1.5983   -0.4786   -0.9167 C   0  0  0  0  0  0  0  0  0  0  0  0
    3.3822    0.5224    0.8895 C   0  0  0  0  0  0  0  0  0  0  0  0
    3.6784   -0.5450    0.0569 C   0  0  0  0  0  0  0  0  0  0  0  0
   -2.8909   -2.3885    0.7255 H   0  0  0  0  0  0  0  0  0  0  0  0
   -2.6556   -1.1182    1.9456 H   0  0  0  0  0  0  0  0  0  0  0  0
   -2.7642    1.4074   -0.9824 H   0  0  0  0  0  0  0  0  0  0  0  0
   -2.7144    1.5516    0.7951 H   0  0  0  0  0  0  0  0  0  0  0  0
   -0.4217   -1.2740    1.0821 H   0  0  0  0  0  0  0  0  0  0  0  0
   -1.0114   -1.6448   -0.5651 H   0  0  0  0  0  0  0  0  0  0  0  0
    1.8591    1.9335    1.4296 H   0  0  0  0  0  0  0  0  0  0  0  0
    0.9430   -0.9047   -1.6699 H   0  0  0  0  0  0  0  0  0  0  0  0
    4.1008    0.9098    1.6043 H   0  0  0  0  0  0  0  0  0  0  0  0
    5.7310   -0.5322    0.4870 H   0  0  0  0  0  0  0  0  0  0  0  0
    5.1824   -1.8952   -0.4418 H   0  0  0  0  0  0  0  0  0  0  0  0
  1  7  1  0  0  0  0
  2  7  1  0  0  0  0
  3 11  2  0  0  0  0
  4  9  1  0  0  0  0
  4 10  1  0  0  0  0
  4 11  1  0  0  0  0
  5 14  1  0  0  0  0
  5 16  2  0  0  0  0
  6 16  1  0  0  0  0
  6 26  1  0  0  0  0
  6 27  1  0  0  0  0
  7  8  1  0  0  0  0
  7  9  1  0  0  0  0
  8 10  1  0  0  0  0
  8 17  1  0  0  0  0
  8 18  1  0  0  0  0
  9 19  1  0  0  0  0
  9 20  1  0  0  0  0
 10 21  1  0  0  0  0
 10 22  1  0  0  0  0
 11 12  1  0  0  0  0
 12 13  1  0  0  0  0
 12 14  2  0  0  0  0
 13 15  2  0  0  0  0
 13 23  1  0  0  0  0
 14 24  1  0  0  0  0
 15 16  1  0  0  0  0
 15 25  1  0  0  0  0
M  END
>  <PUBCHEM_COMPOUND_CID>
153682203

>  <PUBCHEM_CONFORMER_RMSD>
0.6

>  <PUBCHEM_CONFORMER_DIVERSEORDER>
1
8
12
13
10
14
7
11
9
6
2
3
5
4

>  <PUBCHEM_MMFF94_PARTIAL_CHARGES>
20
1 -0.34
10 0.3
11 0.54
12 0.09
13 -0.15
14 0.16
15 -0.15
16 0.41
2 -0.34
23 0.15
24 0.15
25 0.15
26 0.4
27 0.4
3 -0.57
4 -0.66
5 -0.62
6 -0.9
7 0.68
9 0.3

>  <PUBCHEM_EFFECTIVE_ROTOR_COUNT>
3

>  <PUBCHEM_PHARMACOPHORE_FEATURES>
5
1 3 acceptor
1 6 donor
3 5 6 16 cation
5 4 7 8 9 10 rings
6 5 12 13 14 15 16 rings

>  <PUBCHEM_HEAVY_ATOM_COUNT>
16

>  <PUBCHEM_ATOM_DEF_STEREO_COUNT>
0

>  <PUBCHEM_ATOM_UDEF_STEREO_COUNT>
0

>  <PUBCHEM_BOND_DEF_STEREO_COUNT>
0

>  <PUBCHEM_BOND_UDEF_STEREO_COUNT>
0

>  <PUBCHEM_ISOTOPIC_ATOM_COUNT>
0

>  <PUBCHEM_COMPONENT_COUNT>
1

>  <PUBCHEM_CACTVS_TAUTO_COUNT>
-1

>  <PUBCHEM_CONFORMER_ID>
0929011B00000001

>  <PUBCHEM_MMFF94_ENERGY>
52.1589

>  <PUBCHEM_FEATURE_SELFOVERLAP>
25.372

>  <PUBCHEM_SHAPE_FINGERPRINT>
10130415 120 18187087282002600209
10219947 1 18271806860398703172
10465860 250 18259984872627100424
10618630 7 18408605859475012164
10751810 167 16226043392665847029
11132069 177 18059846281856622062
11543360 7 14418139547112190473
12032990 46 18334577953490227793
12251169 10 17704070698623185358
12363563 72 18334863835013739299
124424 183 18186516622656709655
12553582 1 18114174229026018002
12633257 1 17704077291303227842
13288520 33 18335140847946781730
13296908 3 18260833751543839579
13675066 3 18342183284605601177
13690532 89 18335983151242177779
14115302 16 17385732416905964578
14252887 29 18343029877871978546
14943859 89 10807933769280756540
15219456 202 18271800220632679064
15375358 24 18409442617777621074
15375462 478 15985108491765804232
15501101 241 18201999958205059224
15848700 24 18409158935182569029
16752209 62 17749656403524361613
16945 1 18040996263268613937
17804303 29 18411422799543661824
18175812 5 18273494593672906796
18186145 218 16732983158426657549
18522853 295 18187090571910528339
19050596 39 17203890785942124699
19141452 34 18273496780259861343
19784866 240 15937235704627894336
200 152 17561075913091173015
20279233 1 18412827992620712975
20281407 28 18410579474425604058
20281475 54 18335709394015639095
20374829 77 18408319964998137322
20645476 183 15791734130519909675
20645477 70 18202280290609654343
20724930 31 18411982447315819114
21069387 34 18271802492881304095
21267235 1 18335430053421721587
21501925 9 18412542136803747164
21524375 3 9439405696467555188
22854114 59 17561361794625292530
231179 274 11167946831350981530
23227448 37 10302940173281987442
23402539 116 18340760477535177767
23403322 49 18333448716325516770
23559900 14 18186521034120820624
23590187 173 10591774151099479275
23590187 302 13623525783478872583
26918003 58 17632295666099198587
276578 36 12607408784476456876
2871803 45 18261390010307777538
3286 77 17847056697000334768
42 15 18273216399993136027
449060 23 18408039610886513232
449060 50 18060134396810710888
474 4 14907026410736188922
4990 188 12035443934838993256
5104073 3 18130507530381661467
57812782 119 18342457049425055163
581208 293 18130786793434071390
58999712 45 10231748989979533731
58999712 48 14779539076196911206
5902787 121 18041279988259626728
6333272 397 11024104356460549738
69090 78 18131346432073533927
7364860 26 18193000549799771997
74978 22 18042127729347479777
76465 3 18340474600148897446
81228 2 18191318090914024461
83771 10 18411139125680761156
8809292 202 18260271875216438179
9709674 26 18339929225170009454

>  <PUBCHEM_SHAPE_MULTIPOLES>
293.91
8.2
1.56
0.94
0.3
0.48
-0.02
-3.05
0.9
0.05
-0.08
0.02
-0.09
0.47

>  <PUBCHEM_SHAPE_SELFOVERLAP>
629.134

>  <PUBCHEM_SHAPE_VOLUME>
163.9

>  <PUBCHEM_COORDINATE_TYPE>
2
5
10

$$$$
