153765365
 OpenBabel01182520543D

 29 29  0  0  1  0  0  0  0  0999 V2000
   -1.6468    2.3986   -0.6744 O   0  0  0  0  0  0  0  0  0  0  0  0
    0.9548    0.2317   -0.7678 N   0  0  0  0  0  0  0  0  0  0  0  0
   -0.1466   -1.8293   -0.4567 N   0  0  0  0  0  0  0  0  0  0  0  0
   -0.7834    2.2468    1.4446 N   0  0  0  0  0  0  0  0  0  0  0  0
    2.0259    0.5555    0.1436 C   0  0  0  0  0  0  0  0  0  0  0  0
    3.0465   -0.5765    0.2016 C   0  0  0  0  0  0  0  0  0  0  0  0
   -0.1754   -0.4824   -0.3445 C   0  0  0  0  0  0  0  0  0  0  0  0
    1.0538    0.6876   -2.1555 C   0  0  0  0  0  0  0  0  0  0  0  0
   -1.2514    0.2312    0.1584 C   0  0  0  0  0  0  0  0  0  0  0  0
    4.1760   -0.3031    1.1853 C   0  0  0  0  0  0  0  0  0  0  0  0
   -2.3698   -0.4835    0.5729 C   0  0  0  0  0  0  0  0  0  0  0  0
   -1.2543    1.6839    0.2631 C   0  0  0  0  0  0  0  0  0  0  0  0
   -2.3778   -1.8704    0.4733 C   0  0  0  0  0  0  0  0  0  0  0  0
   -1.2515   -2.4900   -0.0437 C   0  0  0  0  0  0  0  0  0  0  0  0
    2.5210    1.4853   -0.1633 H   0  0  0  0  0  0  0  0  0  0  0  0
    1.6325    0.7412    1.1503 H   0  0  0  0  0  0  0  0  0  0  0  0
    3.4728   -0.7427   -0.7952 H   0  0  0  0  0  0  0  0  0  0  0  0
    2.5542   -1.5131    0.4896 H   0  0  0  0  0  0  0  0  0  0  0  0
    2.0792    0.9789   -2.4071 H   0  0  0  0  0  0  0  0  0  0  0  0
    0.7598   -0.1110   -2.8452 H   0  0  0  0  0  0  0  0  0  0  0  0
    0.4042    1.5518   -2.3230 H   0  0  0  0  0  0  0  0  0  0  0  0
    3.7875   -0.1769    2.2008 H   0  0  0  0  0  0  0  0  0  0  0  0
    4.7217    0.6048    0.9100 H   0  0  0  0  0  0  0  0  0  0  0  0
    4.8838   -1.1378    1.1922 H   0  0  0  0  0  0  0  0  0  0  0  0
   -3.2406    0.0283    0.9739 H   0  0  0  0  0  0  0  0  0  0  0  0
   -3.2386   -2.4481    0.7900 H   0  0  0  0  0  0  0  0  0  0  0  0
   -1.2074   -3.5696   -0.1423 H   0  0  0  0  0  0  0  0  0  0  0  0
   -0.4545    1.6790    2.2190 H   0  0  0  0  0  0  0  0  0  0  0  0
   -0.7558    3.2533    1.5682 H   0  0  0  0  0  0  0  0  0  0  0  0
  1 12  2  0  0  0  0
  2  5  1  0  0  0  0
  2  7  1  0  0  0  0
  2  8  1  0  0  0  0
  3  7  1  0  0  0  0
  3 14  2  0  0  0  0
  4 12  1  0  0  0  0
  4 28  1  0  0  0  0
  4 29  1  0  0  0  0
  5  6  1  0  0  0  0
  5 15  1  0  0  0  0
  5 16  1  0  0  0  0
  6 10  1  0  0  0  0
  6 17  1  0  0  0  0
  6 18  1  0  0  0  0
  7  9  2  0  0  0  0
  8 19  1  0  0  0  0
  8 20  1  0  0  0  0
  8 21  1  0  0  0  0
  9 11  1  0  0  0  0
  9 12  1  0  0  0  0
 10 22  1  0  0  0  0
 10 23  1  0  0  0  0
 10 24  1  0  0  0  0
 11 13  2  0  0  0  0
 11 25  1  0  0  0  0
 13 14  1  0  0  0  0
 13 26  1  0  0  0  0
 14 27  1  0  0  0  0
M  END
>  <PUBCHEM_COMPOUND_CID>
153765365

>  <PUBCHEM_CONFORMER_RMSD>
0.6

>  <PUBCHEM_CONFORMER_DIVERSEORDER>
1
42
44
46
41
43
11
39
26
25
22
35
12
14
28
33
16
27
17
34
10
37
31
30
21
23
15
5
36
32
29
6
45
38
8
24
9
20
2
18
13
7
40
4
19
3

>  <PUBCHEM_MMFF94_PARTIAL_CHARGES>
17
1 -0.57
11 -0.15
12 0.54
13 -0.15
14 0.16
2 -0.84
25 0.15
26 0.15
27 0.15
28 0.37
29 0.37
3 -0.62
4 -0.8
5 0.37
7 0.41
8 0.37
9 0.09

>  <PUBCHEM_EFFECTIVE_ROTOR_COUNT>
4

>  <PUBCHEM_PHARMACOPHORE_FEATURES>
6
1 1 acceptor
1 10 hydrophobe
1 2 cation
1 3 acceptor
1 4 donor
6 3 7 9 11 13 14 rings

>  <PUBCHEM_HEAVY_ATOM_COUNT>
14

>  <PUBCHEM_ATOM_DEF_STEREO_COUNT>
0

>  <PUBCHEM_ATOM_UDEF_STEREO_COUNT>
0

>  <PUBCHEM_BOND_DEF_STEREO_COUNT>
0

>  <PUBCHEM_BOND_UDEF_STEREO_COUNT>
0

>  <PUBCHEM_ISOTOPIC_ATOM_COUNT>
0

>  <PUBCHEM_COMPONENT_COUNT>
1

>  <PUBCHEM_CACTVS_TAUTO_COUNT>
-1

>  <PUBCHEM_CONFORMER_ID>
092A45F500000001

>  <PUBCHEM_MMFF94_ENERGY>
57.8791

>  <PUBCHEM_FEATURE_SELFOVERLAP>
30.446

>  <PUBCHEM_SHAPE_FINGERPRINT>
11578080 2 17754427351728143645
11680986 33 17975707095165470131
12423570 1 17825976752545631661
13024252 1 13696146233060010676
13296909 8 18410283705940235152
13380535 76 18193833735079434989
13380536 237 18050007688496893655
14817 1 18129682853589687469
15076042 46 18410298016581523650
15852999 172 18121212074254294093
16945 1 18408046203661358119
17780758 139 18049971478413943610
19049666 15 17844821278403081742
20510252 161 18343864385780328376
20645477 70 16686839121053495359
20871998 184 18272370909953735046
21040471 1 18050592667221557773
21524375 3 17769362830043468448
21650355 55 18268700783142548426
21930827 45 17841185222992493252
220403 375 17976816493591345793
23402539 116 18342725326557998863
23419403 2 17836329968844406773
23552423 10 17113265992718214727
23559900 14 18272097042065355518
25610 171 18131639997229974608
257057 1 18052528065289749959
2748010 2 17832725486313339359
305870 269 17619918253209943048
53812654 25 18269000966949353463
5706482 22 18195795289424301818
58734987 33 18122627425066215331
598444 67 18200864123969886920
68419 9 17825701994897493132
6992083 37 17968381126488311268
81228 2 18269577016684578027
84936 182 17261579682835036992
90316 7 18411139177125501481

>  <PUBCHEM_SHAPE_MULTIPOLES>
267.3
4.53
2.49
1.31
5.19
0.38
-0.46
-1.59
1.89
-2.02
0.21
0.61
0.51
-0.29

>  <PUBCHEM_SHAPE_SELFOVERLAP>
542.368

>  <PUBCHEM_SHAPE_VOLUME>
155.7

>  <PUBCHEM_COORDINATE_TYPE>
2
5
10

$$$$
