154234780
 OpenBabel01182520543D

 25 27  0  0  0  0  0  0  0  0999 V2000
   -4.8694    0.1218    0.5719 F   0  0  0  0  0  0  0  0  0  0  0  0
   -4.2636   -0.1585   -1.5031 F   0  0  0  0  0  0  0  0  0  0  0  0
   -4.1363   -1.8195   -0.0955 F   0  0  0  0  0  0  0  0  0  0  0  0
    2.2655    2.2364   -1.4823 O   0  0  0  0  0  0  0  0  0  0  0  0
   -1.5972   -0.5915   -0.5555 N   0  0  0  0  0  0  0  0  0  0  0  0
    0.6171   -1.0700   -0.4281 N   0  0  0  0  0  0  0  0  0  0  0  0
    0.8874    1.8962    0.3312 N   0  0  0  0  0  0  0  0  0  0  0  0
    2.6174   -2.0170    0.2417 N   0  0  0  0  0  0  0  0  0  0  0  0
   -0.1212    1.1060    0.5076 C   0  0  0  0  0  0  0  0  0  0  0  0
   -0.3245   -0.2139   -0.1912 C   0  0  0  0  0  0  0  0  0  0  0  0
    2.6268    0.3351   -0.1983 C   0  0  0  0  0  0  0  0  0  0  0  0
   -2.5725   -0.0787    0.1285 C   0  0  0  0  0  0  0  0  0  0  0  0
    1.9611   -0.8776   -0.0870 C   0  0  0  0  0  0  0  0  0  0  0  0
   -1.2266    1.4773    1.4157 C   0  0  0  0  0  0  0  0  0  0  0  0
   -2.4113    0.8842    1.2505 C   0  0  0  0  0  0  0  0  0  0  0  0
    1.8923    1.5568   -0.5334 C   0  0  0  0  0  0  0  0  0  0  0  0
    4.0016    0.3968    0.0224 C   0  0  0  0  0  0  0  0  0  0  0  0
   -3.9779   -0.4898   -0.2301 C   0  0  0  0  0  0  0  0  0  0  0  0
    4.6815   -0.7621    0.3673 C   0  0  0  0  0  0  0  0  0  0  0  0
    3.9496   -1.9319    0.4679 C   0  0  0  0  0  0  0  0  0  0  0  0
   -1.0647    2.2437    2.1631 H   0  0  0  0  0  0  0  0  0  0  0  0
   -3.2567    1.1354    1.8776 H   0  0  0  0  0  0  0  0  0  0  0  0
    4.5423    1.3353   -0.0586 H   0  0  0  0  0  0  0  0  0  0  0  0
    5.7490   -0.7507    0.5541 H   0  0  0  0  0  0  0  0  0  0  0  0
    4.4310   -2.8668    0.7356 H   0  0  0  0  0  0  0  0  0  0  0  0
  1 18  1  0  0  0  0
  2 18  1  0  0  0  0
  3 18  1  0  0  0  0
  4 16  2  0  0  0  0
  5 10  1  0  0  0  0
  5 12  2  0  0  0  0
  6 10  2  0  0  0  0
  6 13  1  0  0  0  0
  7  9  2  0  0  0  0
  7 16  1  0  0  0  0
  8 13  1  0  0  0  0
  8 20  2  0  0  0  0
  9 10  1  0  0  0  0
  9 14  1  0  0  0  0
 11 13  2  0  0  0  0
 11 16  1  0  0  0  0
 11 17  1  0  0  0  0
 12 15  1  0  0  0  0
 12 18  1  0  0  0  0
 14 15  2  0  0  0  0
 14 21  1  0  0  0  0
 15 22  1  0  0  0  0
 17 19  2  0  0  0  0
 17 23  1  0  0  0  0
 19 20  1  0  0  0  0
 19 24  1  0  0  0  0
 20 25  1  0  0  0  0
M  END
>  <PUBCHEM_COMPOUND_CID>
154234780

>  <PUBCHEM_CONFORMER_RMSD>
0.6

>  <PUBCHEM_CONFORMER_DIVERSEORDER>
2
1

>  <PUBCHEM_MMFF94_PARTIAL_CHARGES>
25
1 -0.34
10 0.66
11 0.09
12 0.37
13 0.49
14 -0.14
15 -0.14
16 0.69
17 -0.15
18 1.08
19 -0.15
2 -0.34
20 0.16
21 0.15
22 0.15
23 0.15
24 0.15
25 0.15
3 -0.34
4 -0.57
5 -0.66
6 -0.63
7 -0.66
8 -0.62
9 0.44

>  <PUBCHEM_EFFECTIVE_ROTOR_COUNT>
1

>  <PUBCHEM_PHARMACOPHORE_FEATURES>
9
1 4 acceptor
1 5 acceptor
1 7 acceptor
1 7 donor
1 8 acceptor
3 5 6 10 cation
6 5 9 10 12 14 15 rings
6 8 11 13 17 19 20 rings
7 6 7 9 10 11 13 16 rings

>  <PUBCHEM_HEAVY_ATOM_COUNT>
20

>  <PUBCHEM_ATOM_DEF_STEREO_COUNT>
0

>  <PUBCHEM_ATOM_UDEF_STEREO_COUNT>
0

>  <PUBCHEM_BOND_DEF_STEREO_COUNT>
0

>  <PUBCHEM_BOND_UDEF_STEREO_COUNT>
0

>  <PUBCHEM_ISOTOPIC_ATOM_COUNT>
0

>  <PUBCHEM_COMPONENT_COUNT>
1

>  <PUBCHEM_CACTVS_TAUTO_COUNT>
-1

>  <PUBCHEM_CONFORMER_ID>
09316F9C00000002

>  <PUBCHEM_MMFF94_ENERGY>
64.9477

>  <PUBCHEM_FEATURE_SELFOVERLAP>
45.756

>  <PUBCHEM_SHAPE_FINGERPRINT>
10062212 137 18202563973673912091
10759866 29 18191876840383681774
11132069 177 16343707638355470453
11471102 20 18334573559954922950
11578080 2 18127948889377953640
11806522 49 18413106165073352842
12236239 1 18273498974360161564
12892183 10 17631723864761551330
13009979 54 18128831758854776632
13134695 92 18412536626376797132
13288520 33 18130510738927718742
13571099 22 18333449841712150940
13581323 91 17274821337669860100
13675066 3 18272646861533502291
13760787 5 18412826910848000245
14115302 16 18339927120472062398
14178342 30 17843695360746437040
14181834 199 18261686929939347356
14787075 74 17845928641241598808
14863182 85 17775013379360203518
15142383 8 18335145237815101081
15196674 1 18342176652469155744
15375462 189 18201161052576648691
15375462 478 18131067108505816036
15848702 151 18114179726800421629
16752209 62 17704084975310988853
16945 1 18188225251026026924
17349148 13 18342736312477829595
17357779 13 17895463752664009012
17492 89 18342462491307543991
17862501 102 18273494559218203434
1813 80 18263093123923074678
18186145 218 16732979843123348645
18222031 100 18335983078438860246
18522853 276 18201719543842242450
19050596 39 18201726154234806411
192875 21 18412545405300213825
200 152 18342172267613534003
20281475 54 18340207487895960115
20369508 70 18060131098165031689
20511986 3 18200578233851425529
20559304 39 18272937128514067648
20602899 9 15719402702489578057
20645477 70 18114183063826558130
20715895 44 18052820248279806177
21069387 34 18261118451982954338
21249577 28 18272375286472350145
21250096 35 18343578534094812235
21267235 1 18341339915963506886
21501925 9 18341892970137763242
22112679 90 17988095412544368665
221490 88 18189341336611117883
2255824 54 18333737944060886726
22646028 1 18343581845673002295
22646028 28 18343302556729065867
22854114 111 18338800133907046725
23388829 49 18341618062129254848
23402539 116 17560793325628236119
23419403 2 17982132752792838392
23463225 33 18341617005329806172
23557571 272 15841282470979550825
23559900 14 18408881854289848082
26918003 58 18410291411090699123
2748010 2 16683751095058548825
3004659 81 18410008840844482831
439807 62 18195517315907267439
46194498 28 17603585270230415757
474 4 18189902096542622764
4921388 177 16660933283035947795
4990 188 16515400776688846289
5104073 3 18272374217447591387
5161694 15 17167861958926863973
5281201 14 17749106707977068853
53428517 54 18410011039672494606
537710 114 18271810141669256344
53812654 25 17918270965266278436
59391676 29 18413390917020491462
602551 16 15769485529874561447
67856867 119 18339921631514868784
7164475 11 18270123409286326781
7471813 234 18130494297323807517
7495541 125 17531257191868372883
9709674 26 18272095950247415391
9981440 41 17474942602901963856

>  <PUBCHEM_SHAPE_MULTIPOLES>
363.98
8.89
1.98
1.05
3.57
0.17
0.05
-3.66
0.02
-1.13
0.04
0.43
0.39
-1.19

>  <PUBCHEM_SHAPE_SELFOVERLAP>
815.023

>  <PUBCHEM_SHAPE_VOLUME>
190.5

>  <PUBCHEM_COORDINATE_TYPE>
2
5
10

$$$$
