154335245
 OpenBabel01182520543D

 27 28  0  0  0  0  0  0  0  0999 V2000
    1.8634    2.7505    0.0152 O   0  0  0  0  0  0  0  0  0  0  0  0
   -2.2990    0.6813   -0.0267 N   0  0  0  0  0  0  0  0  0  0  0  0
   -0.1868    1.6825   -0.0055 N   0  0  0  0  0  0  0  0  0  0  0  0
   -0.3788   -0.6637   -0.0176 N   0  0  0  0  0  0  0  0  0  0  0  0
    1.5358   -1.9928   -0.0085 N   0  0  0  0  0  0  0  0  0  0  0  0
   -3.2056   -0.4251   -0.0390 C   0  0  0  0  0  0  0  0  0  0  0  0
   -4.6507    0.0602    0.0142 C   0  0  0  0  0  0  0  0  0  0  0  0
   -0.9397    0.5134   -0.0166 C   0  0  0  0  0  0  0  0  0  0  0  0
    1.8336    0.3934    0.0048 C   0  0  0  0  0  0  0  0  0  0  0  0
    1.0249   -0.7394   -0.0069 C   0  0  0  0  0  0  0  0  0  0  0  0
    1.1982    1.7219    0.0056 C   0  0  0  0  0  0  0  0  0  0  0  0
   -5.6561   -1.0826    0.0490 C   0  0  0  0  0  0  0  0  0  0  0  0
    3.2181    0.2445    0.0156 C   0  0  0  0  0  0  0  0  0  0  0  0
    3.7585   -1.0350    0.0143 C   0  0  0  0  0  0  0  0  0  0  0  0
    2.8841   -2.1092    0.0021 C   0  0  0  0  0  0  0  0  0  0  0  0
   -3.0554   -1.0222   -0.9463 H   0  0  0  0  0  0  0  0  0  0  0  0
   -3.0127   -1.0755    0.8226 H   0  0  0  0  0  0  0  0  0  0  0  0
   -4.8596    0.6948   -0.8558 H   0  0  0  0  0  0  0  0  0  0  0  0
   -4.7974    0.6888    0.9013 H   0  0  0  0  0  0  0  0  0  0  0  0
   -2.6828    1.6218   -0.0313 H   0  0  0  0  0  0  0  0  0  0  0  0
   -0.6838    2.5684   -0.0055 H   0  0  0  0  0  0  0  0  0  0  0  0
   -5.5018   -1.7120    0.9311 H   0  0  0  0  0  0  0  0  0  0  0  0
   -5.5638   -1.7108   -0.8426 H   0  0  0  0  0  0  0  0  0  0  0  0
   -6.6768   -0.6892    0.0851 H   0  0  0  0  0  0  0  0  0  0  0  0
    3.8809    1.1045    0.0249 H   0  0  0  0  0  0  0  0  0  0  0  0
    4.8316   -1.1878    0.0225 H   0  0  0  0  0  0  0  0  0  0  0  0
    3.2576   -3.1281    0.0005 H   0  0  0  0  0  0  0  0  0  0  0  0
  1 11  2  0  0  0  0
  2  6  1  0  0  0  0
  2  8  1  0  0  0  0
  2 20  1  0  0  0  0
  3  8  1  0  0  0  0
  3 11  1  0  0  0  0
  3 21  1  0  0  0  0
  4  8  2  0  0  0  0
  4 10  1  0  0  0  0
  5 10  1  0  0  0  0
  5 15  2  0  0  0  0
  6  7  1  0  0  0  0
  6 16  1  0  0  0  0
  6 17  1  0  0  0  0
  7 12  1  0  0  0  0
  7 18  1  0  0  0  0
  7 19  1  0  0  0  0
  9 10  2  0  0  0  0
  9 11  1  0  0  0  0
  9 13  1  0  0  0  0
 12 22  1  0  0  0  0
 12 23  1  0  0  0  0
 12 24  1  0  0  0  0
 13 14  2  0  0  0  0
 13 25  1  0  0  0  0
 14 15  1  0  0  0  0
 14 26  1  0  0  0  0
 15 27  1  0  0  0  0
M  END
>  <PUBCHEM_COMPOUND_CID>
154335245

>  <PUBCHEM_CONFORMER_RMSD>
0.6

>  <PUBCHEM_CONFORMER_DIVERSEORDER>
1
8
5
9
10
4
7
2
6
3

>  <PUBCHEM_MMFF94_PARTIAL_CHARGES>
18
1 -0.57
10 0.49
11 0.54
13 -0.15
14 -0.15
15 0.16
2 -0.82
20 0.4
21 0.37
25 0.15
26 0.15
27 0.15
3 -0.49
4 -0.63
5 -0.62
6 0.37
8 0.56
9 0.09

>  <PUBCHEM_EFFECTIVE_ROTOR_COUNT>
3

>  <PUBCHEM_PHARMACOPHORE_FEATURES>
7
1 1 acceptor
1 12 hydrophobe
1 2 donor
1 3 donor
1 5 acceptor
6 3 4 8 9 10 11 rings
6 5 9 10 13 14 15 rings

>  <PUBCHEM_HEAVY_ATOM_COUNT>
15

>  <PUBCHEM_ATOM_DEF_STEREO_COUNT>
0

>  <PUBCHEM_ATOM_UDEF_STEREO_COUNT>
0

>  <PUBCHEM_BOND_DEF_STEREO_COUNT>
0

>  <PUBCHEM_BOND_UDEF_STEREO_COUNT>
0

>  <PUBCHEM_ISOTOPIC_ATOM_COUNT>
0

>  <PUBCHEM_COMPONENT_COUNT>
1

>  <PUBCHEM_CACTVS_TAUTO_COUNT>
-1

>  <PUBCHEM_CONFORMER_ID>
0932F80D00000001

>  <PUBCHEM_MMFF94_ENERGY>
29.5191

>  <PUBCHEM_FEATURE_SELFOVERLAP>
35.599

>  <PUBCHEM_SHAPE_FINGERPRINT>
10219947 1 18341614789221724430
10967382 1 18410855494867805740
11471102 20 18409728478079568669
11806522 49 18409449176356251255
12032990 46 18339362942284776734
12346645 6 18339642346918517109
13167823 11 18271524295275967359
13380536 305 18338801229487716924
13862211 1 18409448047265610346
14115302 16 17677064493869192639
14178342 30 18124869071524478624
14251717 144 18410575097579668319
14252887 29 18060144193325255310
14576447 43 18412823594674656231
15196674 1 18338797814550678285
15442244 35 18340772525087696241
15477762 27 18411136926557265839
15501101 241 18333453135820438805
16945 1 18410854365333695860
18186145 218 17676481749112682165
193761 8 17978510064011045134
200 152 18272650147747869305
20281475 54 18265057946279026135
20559304 39 18413108359633063240
20606313 2 18409166614583990180
20645477 70 18335698382041381839
20708731 107 18409169934741675964
20871998 22 18127978503218955718
21267235 1 18340214007139701582
21501925 9 18411976940592797769
221490 88 18263650717889026499
2255824 54 18410857706501695700
22959321 4 18411700997929616121
23463225 33 18412545375156165492
2748010 2 18123743163254424428
2871803 45 18260264110300714571
3060560 45 18202006533826259910
3071541 37 18262806297021766308
3286 77 18334857208132519893
33824 294 18337106860161746739
42630746 31 18341891952130553568
449060 62 18341053033316898505
465052 167 18343026601265820535
5104073 3 18341046303076467545
53428517 54 18411419497051219855
537710 114 18409173203602003052
54173680 148 17762336916508646984
57483677 85 18338801225208340041
58734987 43 18411700954753232776
602551 16 15122935344308008847
7364860 26 18340485663884321200
81228 2 17762063133945107088
8809292 202 18187088381646311499
94968 8 18408605842221426306
9709674 26 18261958552582925003

>  <PUBCHEM_SHAPE_MULTIPOLES>
282.9
8.72
2.19
0.59
13.99
0.63
0
-3.88
-0.12
-1.97
-0.01
0.01
-0.02
0.02

>  <PUBCHEM_SHAPE_SELFOVERLAP>
597.635

>  <PUBCHEM_SHAPE_VOLUME>
157.7

>  <PUBCHEM_COORDINATE_TYPE>
2
5
10

$$$$
