154984916
 OpenBabel01182520543D

 24 24  0  0  0  0  0  0  0  0999 V2000
    1.8507   -0.9047    1.2681 O   0  0  0  0  0  0  0  0  0  0  0  0
    2.1922    0.1331   -0.7774 N   0  0  0  0  0  0  0  0  0  0  0  0
   -2.0234    1.0555   -0.3115 N   0  0  0  0  0  0  0  0  0  0  0  0
    0.0330    2.1132   -0.1080 N   0  0  0  0  0  0  0  0  0  0  0  0
   -0.0562   -0.3043    0.0429 C   0  0  0  0  0  0  0  0  0  0  0  0
   -0.8372   -1.4544    0.0164 C   0  0  0  0  0  0  0  0  0  0  0  0
   -0.6919    0.9155   -0.1242 C   0  0  0  0  0  0  0  0  0  0  0  0
   -2.2107   -1.3509   -0.1739 C   0  0  0  0  0  0  0  0  0  0  0  0
    1.3856   -0.3820    0.2419 C   0  0  0  0  0  0  0  0  0  0  0  0
   -0.2301   -2.8081    0.1875 C   0  0  0  0  0  0  0  0  0  0  0  0
   -2.7501   -0.0844   -0.3315 C   0  0  0  0  0  0  0  0  0  0  0  0
    3.6367    0.1089   -0.7387 C   0  0  0  0  0  0  0  0  0  0  0  0
   -0.2985    2.9625    0.8083 C   0  0  0  0  0  0  0  0  0  0  0  0
   -2.8534   -2.2243   -0.1996 H   0  0  0  0  0  0  0  0  0  0  0  0
    0.6306   -2.9402   -0.4767 H   0  0  0  0  0  0  0  0  0  0  0  0
   -0.9428   -3.6025   -0.0611 H   0  0  0  0  0  0  0  0  0  0  0  0
    0.0828   -2.9590    1.2255 H   0  0  0  0  0  0  0  0  0  0  0  0
   -3.8160    0.0506   -0.4826 H   0  0  0  0  0  0  0  0  0  0  0  0
    1.7506    0.5612   -1.5860 H   0  0  0  0  0  0  0  0  0  0  0  0
    3.9837    1.0571   -0.3210 H   0  0  0  0  0  0  0  0  0  0  0  0
    3.9930   -0.7183   -0.1199 H   0  0  0  0  0  0  0  0  0  0  0  0
    4.0081   -0.0005   -1.7602 H   0  0  0  0  0  0  0  0  0  0  0  0
    0.2315    3.9259    0.8704 H   0  0  0  0  0  0  0  0  0  0  0  0
   -1.0907    2.7825    1.5559 H   0  0  0  0  0  0  0  0  0  0  0  0
  1  9  2  0  0  0  0
  2  9  1  0  0  0  0
  2 12  1  0  0  0  0
  2 19  1  0  0  0  0
  3  7  2  0  0  0  0
  3 11  1  0  0  0  0
  4  7  1  0  0  0  0
  4 13  2  0  0  0  0
  5  6  2  0  0  0  0
  5  7  1  0  0  0  0
  5  9  1  0  0  0  0
  6  8  1  0  0  0  0
  6 10  1  0  0  0  0
  8 11  2  0  0  0  0
  8 14  1  0  0  0  0
 10 15  1  0  0  0  0
 10 16  1  0  0  0  0
 10 17  1  0  0  0  0
 11 18  1  0  0  0  0
 12 20  1  0  0  0  0
 12 21  1  0  0  0  0
 12 22  1  0  0  0  0
 13 23  1  0  0  0  0
 13 24  1  0  0  0  0
M  END
>  <PUBCHEM_COMPOUND_CID>
154984916

>  <PUBCHEM_CONFORMER_RMSD>
0.6

>  <PUBCHEM_CONFORMER_DIVERSEORDER>
3
1
6
5
4
2

>  <PUBCHEM_MMFF94_PARTIAL_CHARGES>
18
1 -0.57
10 0.14
11 0.16
12 0.3
13 0.33
14 0.15
18 0.15
19 0.37
2 -0.73
23 0.06
24 0.06
3 -0.62
4 -0.63
5 0.09
6 -0.14
7 0.49
8 -0.15
9 0.54

>  <PUBCHEM_EFFECTIVE_ROTOR_COUNT>
3

>  <PUBCHEM_PHARMACOPHORE_FEATURES>
5
1 1 acceptor
1 2 donor
1 4 acceptor
3 3 4 7 cation
6 3 5 6 7 8 11 rings

>  <PUBCHEM_HEAVY_ATOM_COUNT>
13

>  <PUBCHEM_ATOM_DEF_STEREO_COUNT>
0

>  <PUBCHEM_ATOM_UDEF_STEREO_COUNT>
0

>  <PUBCHEM_BOND_DEF_STEREO_COUNT>
0

>  <PUBCHEM_BOND_UDEF_STEREO_COUNT>
0

>  <PUBCHEM_ISOTOPIC_ATOM_COUNT>
0

>  <PUBCHEM_COMPONENT_COUNT>
1

>  <PUBCHEM_CACTVS_TAUTO_COUNT>
-1

>  <PUBCHEM_CONFORMER_ID>
093CE1D400000003

>  <PUBCHEM_MMFF94_ENERGY>
36.4324

>  <PUBCHEM_FEATURE_SELFOVERLAP>
25.372

>  <PUBCHEM_SHAPE_FINGERPRINT>
100427 49 18267862972303698961
108231 29 18339366378079077193
11680986 33 17833831951503801387
12423570 1 17536011282546686541
12524768 44 18200868590677858452
12716758 59 18410298033903778790
13024252 1 17968105226009716591
14614273 12 18116430328118115660
15076042 46 18192704553685858962
15490181 8 17832987152594880123
161256 15 17615976942232206411
16945 1 17821727273126652023
17775402 16 18335128774445676805
193761 8 17762053646214436159
19837323 101 18124339137042553452
20510252 161 18342459197188388712
20645476 183 17894634772489293278
21040471 1 17764301743523667240
22344851 341 17760360393785743491
22802520 49 17986413104135412134
228727 97 18187938282696344004
23402539 116 18342168952009525782
23419403 2 16043574060805969423
23557571 272 18200327635943225644
23559900 14 18413671319120515532
241688 4 16461631024537808891
2748010 2 17471006355595404823
353137 74 18334581209239020468
4369600 1 18412258454160981959
4663303 62 17699007615076181424
528886 8 18411135814387479107
53812653 8 18265056838240975168
53812654 25 18264468702652103730
7364860 26 17695348461805923121
81228 2 18270415909649704304

>  <PUBCHEM_SHAPE_MULTIPOLES>
246.72
3.77
2.8
0.85
2.38
1.01
0.11
-0.64
-1.09
-0.7
0.7
0.35
0.02
-0.07

>  <PUBCHEM_SHAPE_SELFOVERLAP>
511.51

>  <PUBCHEM_SHAPE_VOLUME>
141.6

>  <PUBCHEM_COORDINATE_TYPE>
2
5
10

$$$$
