155230717
 OpenBabel01182520543D

 23 23  0  0  0  0  0  0  0  0999 V2000
    1.4617    3.4673    0.5970 S   0  0  0  0  0  0  0  0  0  0  0  0
   -1.8309   -0.8167   -1.6578 O   0  0  0  0  0  0  0  0  0  0  0  0
   -2.2333    0.0876    0.4598 N   0  0  0  0  0  0  0  0  0  0  0  0
    2.2810   -0.1561   -0.1819 N   0  0  0  0  0  0  0  0  0  0  0  0
    0.7097    1.3382   -1.0138 N   0  0  0  0  0  0  0  0  0  0  0  0
   -0.0431   -0.8211   -0.2136 C   0  0  0  0  0  0  0  0  0  0  0  0
   -1.4489   -0.5190   -0.5266 C   0  0  0  0  0  0  0  0  0  0  0  0
   -3.6227    0.4116    0.1683 C   0  0  0  0  0  0  0  0  0  0  0  0
   -1.7713    0.4334    1.8023 C   0  0  0  0  0  0  0  0  0  0  0  0
    0.2932   -2.0499    0.3435 C   0  0  0  0  0  0  0  0  0  0  0  0
    0.9787    0.0831   -0.4548 C   0  0  0  0  0  0  0  0  0  0  0  0
    1.6223   -2.3328    0.6384 C   0  0  0  0  0  0  0  0  0  0  0  0
    2.5696   -1.3610    0.3590 C   0  0  0  0  0  0  0  0  0  0  0  0
    1.0340    2.2354   -0.3198 C   0  0  0  0  0  0  0  0  0  0  0  0
   -4.2648   -0.1243    0.8733 H   0  0  0  0  0  0  0  0  0  0  0  0
   -3.7655    1.4895    0.2887 H   0  0  0  0  0  0  0  0  0  0  0  0
   -3.9004    0.1287   -0.8502 H   0  0  0  0  0  0  0  0  0  0  0  0
   -1.8894    1.5120    1.9428 H   0  0  0  0  0  0  0  0  0  0  0  0
   -2.3922   -0.0969    2.5305 H   0  0  0  0  0  0  0  0  0  0  0  0
   -0.7277    0.1709    1.9770 H   0  0  0  0  0  0  0  0  0  0  0  0
   -0.4714   -2.7933    0.5522 H   0  0  0  0  0  0  0  0  0  0  0  0
    1.9076   -3.2838    1.0733 H   0  0  0  0  0  0  0  0  0  0  0  0
    3.6199   -1.5323    0.5704 H   0  0  0  0  0  0  0  0  0  0  0  0
  1 14  2  0  0  0  0
  2  7  2  0  0  0  0
  3  7  1  0  0  0  0
  3  8  1  0  0  0  0
  3  9  1  0  0  0  0
  4 11  1  0  0  0  0
  4 13  2  0  0  0  0
  5 11  1  0  0  0  0
  5 14  2  0  0  0  0
  6  7  1  0  0  0  0
  6 10  1  0  0  0  0
  6 11  2  0  0  0  0
  8 15  1  0  0  0  0
  8 16  1  0  0  0  0
  8 17  1  0  0  0  0
  9 18  1  0  0  0  0
  9 19  1  0  0  0  0
  9 20  1  0  0  0  0
 10 12  2  0  0  0  0
 10 21  1  0  0  0  0
 12 13  1  0  0  0  0
 12 22  1  0  0  0  0
 13 23  1  0  0  0  0
M  END
>  <PUBCHEM_COMPOUND_CID>
155230717

>  <PUBCHEM_CONFORMER_RMSD>
0.6

>  <PUBCHEM_CONFORMER_DIVERSEORDER>
1
13
14
10
5
12
3
9
7
11
6
2
8
4

>  <PUBCHEM_MMFF94_PARTIAL_CHARGES>
17
1 -0.27
10 -0.15
11 0.49
12 -0.15
13 0.16
14 0.57
2 -0.57
21 0.15
22 0.15
23 0.15
3 -0.66
4 -0.62
5 -0.48
6 0.09
7 0.54
8 0.3
9 0.3

>  <PUBCHEM_EFFECTIVE_ROTOR_COUNT>
3

>  <PUBCHEM_PHARMACOPHORE_FEATURES>
5
1 1 acceptor
1 2 acceptor
1 4 acceptor
1 5 acceptor
6 4 6 10 11 12 13 rings

>  <PUBCHEM_HEAVY_ATOM_COUNT>
14

>  <PUBCHEM_ATOM_DEF_STEREO_COUNT>
0

>  <PUBCHEM_ATOM_UDEF_STEREO_COUNT>
0

>  <PUBCHEM_BOND_DEF_STEREO_COUNT>
0

>  <PUBCHEM_BOND_UDEF_STEREO_COUNT>
0

>  <PUBCHEM_ISOTOPIC_ATOM_COUNT>
0

>  <PUBCHEM_COMPONENT_COUNT>
1

>  <PUBCHEM_CACTVS_TAUTO_COUNT>
-1

>  <PUBCHEM_CONFORMER_ID>
0940A1FD00000001

>  <PUBCHEM_MMFF94_ENERGY>
41.2084

>  <PUBCHEM_FEATURE_SELFOVERLAP>
25.424

>  <PUBCHEM_SHAPE_FINGERPRINT>
11578080 2 17337537420862884641
12423570 1 13730722210247014119
12716301 132 15792553189726476269
13132413 78 18342458101924476104
15279308 10 18130791204370901989
16945 1 18337095835001926870
17357990 137 17701850746087134041
17841504 4 18261399914333245363
20539784 86 17901709009101367825
21524375 3 17983018048283430653
21639500 275 18336252531427297109
23419403 2 13346461948719145139
2748010 2 18046893888841957502
305870 269 18193272116302488576
3286 77 18113343007347813963
568465 68 17822309954207473290
5706482 22 17546709917401179160
5845 1 18123737674080440222
58734985 188 18335981982610042874
63268167 104 18409730659769876828
6992083 37 18059012757295173943
81228 2 17396418312849975122

>  <PUBCHEM_SHAPE_MULTIPOLES>
271.15
3.84
3.17
1.2
2.88
2.22
-0.11
0.27
-0.41
-2.99
-0.69
0.57
0.08
-0.46

>  <PUBCHEM_SHAPE_SELFOVERLAP>
553.237

>  <PUBCHEM_SHAPE_VOLUME>
160.3

>  <PUBCHEM_COORDINATE_TYPE>
2
5
10

$$$$
