15532801
 OpenBabel01182520543D

 30 31  0  0  0  0  0  0  0  0999 V2000
    1.4819   -2.8810   -0.0352 O   0  0  0  0  0  0  0  0  0  0  0  0
    0.1781    0.8852   -0.4828 N   0  0  0  0  0  0  0  0  0  0  0  0
   -0.2761   -1.4558   -0.3609 N   0  0  0  0  0  0  0  0  0  0  0  0
    2.3821    1.7577    0.0317 N   0  0  0  0  0  0  0  0  0  0  0  0
   -2.0184   -0.1038   -0.7316 N   0  0  0  0  0  0  0  0  0  0  0  0
   -4.1127    0.1812    0.4022 N   0  0  0  0  0  0  0  0  0  0  0  0
    1.5367    0.7043   -0.1256 C   0  0  0  0  0  0  0  0  0  0  0  0
    1.9914   -0.6043    0.0591 C   0  0  0  0  0  0  0  0  0  0  0  0
   -0.6628   -0.2220   -0.5218 C   0  0  0  0  0  0  0  0  0  0  0  0
   -0.2450    2.2627   -0.7050 C   0  0  0  0  0  0  0  0  0  0  0  0
    1.0504   -1.7354   -0.1191 C   0  0  0  0  0  0  0  0  0  0  0  0
    3.3254   -0.8362    0.4030 C   0  0  0  0  0  0  0  0  0  0  0  0
    4.1844    0.2405    0.5617 C   0  0  0  0  0  0  0  0  0  0  0  0
    3.6683    1.5065    0.3673 C   0  0  0  0  0  0  0  0  0  0  0  0
   -2.7381    0.0407    0.3274 C   0  0  0  0  0  0  0  0  0  0  0  0
   -4.7866    0.3380    1.6835 C   0  0  0  0  0  0  0  0  0  0  0  0
   -4.9591   -0.0781   -0.7540 C   0  0  0  0  0  0  0  0  0  0  0  0
    0.3986    2.7596   -1.4399 H   0  0  0  0  0  0  0  0  0  0  0  0
   -0.2211    2.8290    0.2325 H   0  0  0  0  0  0  0  0  0  0  0  0
   -1.2659    2.3153   -1.0968 H   0  0  0  0  0  0  0  0  0  0  0  0
    3.7065   -1.8423    0.5514 H   0  0  0  0  0  0  0  0  0  0  0  0
    5.2241    0.0930    0.8294 H   0  0  0  0  0  0  0  0  0  0  0  0
    4.2946    2.3855    0.4785 H   0  0  0  0  0  0  0  0  0  0  0  0
   -2.2694    0.0842    1.3281 H   0  0  0  0  0  0  0  0  0  0  0  0
   -5.0132   -0.6438    2.1109 H   0  0  0  0  0  0  0  0  0  0  0  0
   -5.7223    0.8961    1.5744 H   0  0  0  0  0  0  0  0  0  0  0  0
   -4.1607    0.8899    2.3929 H   0  0  0  0  0  0  0  0  0  0  0  0
   -5.0589   -1.1568   -0.9115 H   0  0  0  0  0  0  0  0  0  0  0  0
   -4.5337    0.3698   -1.6582 H   0  0  0  0  0  0  0  0  0  0  0  0
   -5.9609    0.3445   -0.6231 H   0  0  0  0  0  0  0  0  0  0  0  0
  1 11  2  0  0  0  0
  2  7  1  0  0  0  0
  2  9  1  0  0  0  0
  2 10  1  0  0  0  0
  3  9  2  0  0  0  0
  3 11  1  0  0  0  0
  4  7  1  0  0  0  0
  4 14  2  0  0  0  0
  5  9  1  0  0  0  0
  5 15  2  0  0  0  0
  6 15  1  0  0  0  0
  6 16  1  0  0  0  0
  6 17  1  0  0  0  0
  7  8  2  0  0  0  0
  8 11  1  0  0  0  0
  8 12  1  0  0  0  0
 10 18  1  0  0  0  0
 10 19  1  0  0  0  0
 10 20  1  0  0  0  0
 12 13  2  0  0  0  0
 12 21  1  0  0  0  0
 13 14  1  0  0  0  0
 13 22  1  0  0  0  0
 14 23  1  0  0  0  0
 15 24  1  0  0  0  0
 16 25  1  0  0  0  0
 16 26  1  0  0  0  0
 16 27  1  0  0  0  0
 17 28  1  0  0  0  0
 17 29  1  0  0  0  0
 17 30  1  0  0  0  0
M  END
>  <PUBCHEM_COMPOUND_CID>
15532801

>  <PUBCHEM_CONFORMER_RMSD>
0.6

>  <PUBCHEM_CONFORMER_DIVERSEORDER>
2
1
3

>  <PUBCHEM_MMFF94_PARTIAL_CHARGES>
21
1 -0.57
10 0.37
11 0.69
12 -0.15
13 -0.15
14 0.16
15 0.44
16 0.37
17 0.37
2 -0.52
21 0.15
22 0.15
23 0.15
24 0.06
3 -0.66
4 -0.62
5 -0.66
6 -0.79
7 0.41
8 0.09
9 0.71

>  <PUBCHEM_EFFECTIVE_ROTOR_COUNT>
2

>  <PUBCHEM_PHARMACOPHORE_FEATURES>
6
1 1 acceptor
1 3 donor
1 4 acceptor
3 5 6 15 cation
6 2 3 7 8 9 11 rings
6 4 7 8 12 13 14 rings

>  <PUBCHEM_HEAVY_ATOM_COUNT>
17

>  <PUBCHEM_ATOM_DEF_STEREO_COUNT>
0

>  <PUBCHEM_ATOM_UDEF_STEREO_COUNT>
0

>  <PUBCHEM_BOND_DEF_STEREO_COUNT>
1

>  <PUBCHEM_BOND_UDEF_STEREO_COUNT>
0

>  <PUBCHEM_ISOTOPIC_ATOM_COUNT>
0

>  <PUBCHEM_COMPONENT_COUNT>
1

>  <PUBCHEM_CACTVS_TAUTO_COUNT>
1

>  <PUBCHEM_CONFORMER_ID>
00ED030100000002

>  <PUBCHEM_MMFF94_ENERGY>
52.2405

>  <PUBCHEM_FEATURE_SELFOVERLAP>
30.474

>  <PUBCHEM_SHAPE_FINGERPRINT>
10219947 1 18335701658573862653
10465860 228 18200884988815638867
10493431 412 18267583705267440512
10967382 1 18410004442929678270
10980938 120 18411699876621431047
11132069 177 18335132128683006023
11471102 20 18410287012732659340
11471102 22 18335148557159786267
11796584 16 15864344710360900315
12236239 1 17846492635030068479
12251169 10 18410853269694847347
12346645 6 18412261735700619030
12390115 104 17980493574355946768
13140716 1 18265324178933943626
13583140 156 16372101447895153724
14251717 144 18411976962189109439
14252887 29 18260274014342123747
14790565 3 18264498458518632508
15375358 24 18113615677599155443
16945 1 18337938018486625014
18186145 218 18343015618896878700
200 152 18271795840293252805
20279233 1 17821730525050053683
204376 136 18338517550765268654
20645477 70 18335408033530564087
20739085 24 18261406541352407612
21041028 32 18056195761629118442
21637258 2 15140945271698500160
22182313 1 18194107522365301646
22854114 59 18410009944561238265
23184049 59 18408602590978565076
2334 1 18048869986252173246
23557571 272 16806156653930091983
23559900 14 16878506726445629682
2748010 2 18265046028309457774
2838139 119 15050863435202054024
33824 294 18408037398973314899
42630746 31 18342458136262894783
44154327 71 18261677081742997732
449060 62 18342175570279886798
465052 167 17894632556528450074
474 4 18341330092977330881
5104073 3 18193825158588804544
58807428 26 18265314244827738002
633830 44 18131075969102742172

>  <PUBCHEM_SHAPE_MULTIPOLES>
319.08
8.76
2.05
0.95
8.94
0.47
0.25
-1.27
2.72
-1.74
-0.26
1.03
-0.13
-0.09

>  <PUBCHEM_SHAPE_SELFOVERLAP>
675.303

>  <PUBCHEM_SHAPE_VOLUME>
176.4

>  <PUBCHEM_COORDINATE_TYPE>
2
5
10

$$$$
