155654082
 OpenBabel01182520543D

 15 15  0  0  0  0  0  0  0  0999 V2000
    2.3940   -1.1117    0.0082 O   0  0  0  0  0  0  0  0  0  0  0  0
   -1.7614    1.2284    0.0030 N   0  0  0  0  0  0  0  0  0  0  0  0
    2.4052    1.1814   -0.0027 N   0  0  0  0  0  0  0  0  0  0  0  0
    0.2969   -0.0396   -0.0018 C   0  0  0  0  0  0  0  0  0  0  0  0
   -0.4260   -1.2273   -0.0036 C   0  0  0  0  0  0  0  0  0  0  0  0
   -0.4117    1.1511    0.0018 C   0  0  0  0  0  0  0  0  0  0  0  0
   -1.8160   -1.1887   -0.0016 C   0  0  0  0  0  0  0  0  0  0  0  0
    1.7490   -0.0472   -0.0047 C   0  0  0  0  0  0  0  0  0  0  0  0
   -2.4300    0.0534    0.0013 C   0  0  0  0  0  0  0  0  0  0  0  0
    0.0722   -2.1929   -0.0066 H   0  0  0  0  0  0  0  0  0  0  0  0
    0.0488    2.1309    0.0038 H   0  0  0  0  0  0  0  0  0  0  0  0
   -2.4003   -2.1017   -0.0028 H   0  0  0  0  0  0  0  0  0  0  0  0
   -3.5118    0.1379    0.0024 H   0  0  0  0  0  0  0  0  0  0  0  0
    1.9562    2.0885   -0.0076 H   0  0  0  0  0  0  0  0  0  0  0  0
    3.4201    1.2051    0.0024 H   0  0  0  0  0  0  0  0  0  0  0  0
  1  8  2  0  0  0  0
  2  6  1  0  0  0  0
  2  9  2  0  0  0  0
  3  8  1  0  0  0  0
  3 14  1  0  0  0  0
  3 15  1  0  0  0  0
  4  5  1  0  0  0  0
  4  6  2  0  0  0  0
  4  8  1  0  0  0  0
  5  7  2  0  0  0  0
  5 10  1  0  0  0  0
  6 11  1  0  0  0  0
  7  9  1  0  0  0  0
  7 12  1  0  0  0  0
  9 13  1  0  0  0  0
M  ISO  2  10   2  13   2
M  END
>  <PUBCHEM_COMPOUND_CID>
155654082

>  <PUBCHEM_CONFORMER_RMSD>
0.4

>  <PUBCHEM_CONFORMER_DIVERSEORDER>
1
2

>  <PUBCHEM_MMFF94_PARTIAL_CHARGES>
15
1 -0.57
10 0.15
11 0.15
12 0.15
13 0.15
14 0.37
15 0.37
2 -0.62
3 -0.8
4 0.09
5 -0.15
6 0.16
7 -0.15
8 0.54
9 0.16

>  <PUBCHEM_EFFECTIVE_ROTOR_COUNT>
1

>  <PUBCHEM_PHARMACOPHORE_FEATURES>
4
1 1 acceptor
1 2 acceptor
1 3 donor
6 2 4 5 6 7 9 rings

>  <PUBCHEM_HEAVY_ATOM_COUNT>
9

>  <PUBCHEM_ATOM_DEF_STEREO_COUNT>
0

>  <PUBCHEM_ATOM_UDEF_STEREO_COUNT>
0

>  <PUBCHEM_BOND_DEF_STEREO_COUNT>
0

>  <PUBCHEM_BOND_UDEF_STEREO_COUNT>
0

>  <PUBCHEM_ISOTOPIC_ATOM_COUNT>
2

>  <PUBCHEM_COMPONENT_COUNT>
1

>  <PUBCHEM_CACTVS_TAUTO_COUNT>
-1

>  <PUBCHEM_CONFORMER_ID>
094717C200000001

>  <PUBCHEM_MMFF94_ENERGY>
25.6042

>  <PUBCHEM_FEATURE_SELFOVERLAP>
20.297

>  <PUBCHEM_SHAPE_FINGERPRINT>
10219947 1 18335424560627658471
10857977 72 18408877464843665203
12423570 1 17894633656129631503
12524768 44 18411704304595641143
12897270 3 18338234864956018127
13380535 76 18340203093891260662
14325111 11 18410856568530566919
16945 1 18338797793371487751
17844478 74 18114475482896786691
193761 8 17474106978617555815
19973954 147 18195248806565501131
20645476 183 17822874076798119382
20645477 70 18194957453913434079
20871998 184 17984428704559116351
21028194 46 18334016064499327575
21040471 1 18410856598315880071
22802520 49 18128279876689575518
23235685 24 18409165502583216307
23402655 69 18123451810523255757
23463225 33 18335419015392642083
23552423 10 18334014977667068206
23559900 14 18272093812471345380
2748010 2 18338519767237691631
29004967 10 18261682480458547915
369184 2 18411135840215376531
5084963 1 18200873976545891731
528886 8 18411414020994460275

>  <PUBCHEM_SHAPE_MULTIPOLES>
169.38
3.44
1.47
0.59
0.91
0.02
0
0.03
0
-0.08
0
-0.04
-0.01
0

>  <PUBCHEM_SHAPE_SELFOVERLAP>
353.86

>  <PUBCHEM_SHAPE_VOLUME>
95

>  <PUBCHEM_COORDINATE_TYPE>
2
5
10

$$$$
