155666806
 OpenBabel01182520543D

 20 20  0  0  0  0  0  0  0  0999 V2000
   -3.2309    2.1198    0.2758 I   0  0  0  0  0  0  0  0  0  0  0  0
    2.3017    1.5298   -0.5237 O   0  0  0  0  0  0  0  0  0  0  0  0
    2.8675   -0.5574    0.3139 N   0  0  0  0  0  0  0  0  0  0  0  0
   -1.1428   -1.6908   -0.1469 N   0  0  0  0  0  0  0  0  0  0  0  0
   -3.4279   -1.1396    0.0150 N   0  0  0  0  0  0  0  0  0  0  0  0
    0.5438    0.0404   -0.0890 C   0  0  0  0  0  0  0  0  0  0  0  0
   -0.4448    1.0093    0.0433 C   0  0  0  0  0  0  0  0  0  0  0  0
    1.9496    0.4030   -0.1292 C   0  0  0  0  0  0  0  0  0  0  0  0
   -1.7820    0.6297    0.0806 C   0  0  0  0  0  0  0  0  0  0  0  0
    0.1460   -1.2837   -0.1793 C   0  0  0  0  0  0  0  0  0  0  0  0
   -2.0758   -0.7209   -0.0173 C   0  0  0  0  0  0  0  0  0  0  0  0
    4.2956   -0.3395    0.3569 C   0  0  0  0  0  0  0  0  0  0  0  0
   -0.1672    2.0581    0.1208 H   0  0  0  0  0  0  0  0  0  0  0  0
    0.8481   -2.1002   -0.3119 H   0  0  0  0  0  0  0  0  0  0  0  0
    2.5353   -1.4328    0.7042 H   0  0  0  0  0  0  0  0  0  0  0  0
    4.7974   -1.2979    0.2057 H   0  0  0  0  0  0  0  0  0  0  0  0
    4.5989    0.3694   -0.4174 H   0  0  0  0  0  0  0  0  0  0  0  0
    4.5522    0.0601    1.3411 H   0  0  0  0  0  0  0  0  0  0  0  0
   -4.0971   -0.5620    0.5087 H   0  0  0  0  0  0  0  0  0  0  0  0
   -3.6053   -2.1341   -0.0508 H   0  0  0  0  0  0  0  0  0  0  0  0
  1  9  1  0  0  0  0
  2  8  2  0  0  0  0
  3  8  1  0  0  0  0
  3 12  1  0  0  0  0
  3 15  1  0  0  0  0
  4 10  2  0  0  0  0
  4 11  1  0  0  0  0
  5 11  1  0  0  0  0
  5 19  1  0  0  0  0
  5 20  1  0  0  0  0
  6  7  2  0  0  0  0
  6  8  1  0  0  0  0
  6 10  1  0  0  0  0
  7  9  1  0  0  0  0
  7 13  1  0  0  0  0
  9 11  2  0  0  0  0
 10 14  1  0  0  0  0
 12 16  1  0  0  0  0
 12 17  1  0  0  0  0
 12 18  1  0  0  0  0
M  END
>  <PUBCHEM_COMPOUND_CID>
155666806

>  <PUBCHEM_CONFORMER_RMSD>
0.6

>  <PUBCHEM_CONFORMER_DIVERSEORDER>
1
2

>  <PUBCHEM_MMFF94_PARTIAL_CHARGES>
17
1 -0.08
10 0.16
11 0.41
12 0.3
13 0.15
14 0.15
15 0.37
19 0.4
2 -0.57
20 0.4
3 -0.73
4 -0.62
5 -0.9
6 0.09
7 -0.15
8 0.54
9 0.08

>  <PUBCHEM_EFFECTIVE_ROTOR_COUNT>
2

>  <PUBCHEM_PHARMACOPHORE_FEATURES>
7
1 1 hydrophobe
1 2 acceptor
1 3 donor
1 4 acceptor
1 5 cation
1 5 donor
6 4 6 7 9 10 11 rings

>  <PUBCHEM_HEAVY_ATOM_COUNT>
12

>  <PUBCHEM_ATOM_DEF_STEREO_COUNT>
0

>  <PUBCHEM_ATOM_UDEF_STEREO_COUNT>
0

>  <PUBCHEM_BOND_DEF_STEREO_COUNT>
0

>  <PUBCHEM_BOND_UDEF_STEREO_COUNT>
0

>  <PUBCHEM_ISOTOPIC_ATOM_COUNT>
0

>  <PUBCHEM_COMPONENT_COUNT>
1

>  <PUBCHEM_CACTVS_TAUTO_COUNT>
-1

>  <PUBCHEM_CONFORMER_ID>
0947497600000001

>  <PUBCHEM_MMFF94_ENERGY>
36.2553

>  <PUBCHEM_FEATURE_SELFOVERLAP>
35.521

>  <PUBCHEM_SHAPE_FINGERPRINT>
10130415 120 18410291458113585474
11062470 55 12751245817347931642
12032990 46 18336269062630305707
12251169 10 18335141955600022793
13380535 76 18268429040809364221
13690532 89 18335133207041920962
14325111 11 18410575093353285796
14897335 6 18268989787418318781
16945 1 18341335607852534431
18511873 20 18335420123799958216
193761 8 18051133592778052191
19422 9 18186525427270919234
20510252 161 18202003235090779881
20645476 183 17752502107168510086
20645477 56 18341052930137567136
20645477 70 18261949751456781887
20871998 184 17986676067597738422
21028194 46 18273216404140436187
21040471 1 18412830161684523621
21501502 16 18408889567819139372
21501925 9 18337382838039182890
21524375 3 18339921498797877505
22445834 79 18187356615201912338
23402539 116 18271514369421670415
23402655 69 18126832812915423997
23463225 33 18408322189865069166
23552423 10 18188207723132545214
23559900 14 18130784513576525066
2748010 2 18197226845047883503
369184 2 18338797930535985263
5104073 3 18409163308055324136
6333449 129 18341891866426243557
7364860 26 18268430325231802740
8030462 33 18189062056483566564

>  <PUBCHEM_SHAPE_MULTIPOLES>
238.08
6.4
1.93
0.67
3.61
0.03
0.02
1.67
0.86
-1.7
-0.07
0
0.1
-0.3

>  <PUBCHEM_SHAPE_SELFOVERLAP>
471.051

>  <PUBCHEM_SHAPE_VOLUME>
145.6

>  <PUBCHEM_COORDINATE_TYPE>
2
5
10

$$$$
