156301266
 OpenBabel01182520543D

 57 57  0  0  0  0  0  0  0  0999 V2000
    3.2954    2.7021   -0.4811 O   0  0  0  0  0  0  0  0  0  0  0  0
   -5.5741    1.4073   -0.1357 N   0  0  0  0  0  0  0  0  0  0  0  0
    1.8887    1.6549    1.0377 N   0  0  0  0  0  0  0  0  0  0  0  0
    4.7528   -1.4045    1.3608 N   0  0  0  0  0  0  0  0  0  0  0  0
    6.3476   -2.7997    0.2722 N   0  0  0  0  0  0  0  0  0  0  0  0
   -2.0594    1.0598   -0.8102 C   0  0  0  0  0  0  0  0  0  0  0  0
   -0.9583    1.2516    0.2470 C   0  0  0  0  0  0  0  0  0  0  0  0
   -3.9480   -0.4609   -0.0732 C   0  0  0  0  0  0  0  0  0  0  0  0
   -2.7772   -0.2873   -0.7511 C   0  0  0  0  0  0  0  0  0  0  0  0
   -0.1979    2.5752    0.1090 C   0  0  0  0  0  0  0  0  0  0  0  0
   -4.7040   -1.7861   -0.0037 C   0  0  0  0  0  0  0  0  0  0  0  0
   -4.6493    0.6461    0.7004 C   0  0  0  0  0  0  0  0  0  0  0  0
   -4.3349   -2.5950    1.2431 C   0  0  0  0  0  0  0  0  0  0  0  0
    0.9225    2.7137    1.1356 C   0  0  0  0  0  0  0  0  0  0  0  0
   -2.1437   -1.3964   -1.4833 C   0  0  0  0  0  0  0  0  0  0  0  0
   -5.0780   -3.9214    1.2828 C   0  0  0  0  0  0  0  0  0  0  0  0
   -1.0008   -1.3713   -2.1890 C   0  0  0  0  0  0  0  0  0  0  0  0
   -6.2178    2.4617    0.6334 C   0  0  0  0  0  0  0  0  0  0  0  0
    3.0135    1.7373    0.2247 C   0  0  0  0  0  0  0  0  0  0  0  0
   -0.1554   -0.1477   -2.3450 C   0  0  0  0  0  0  0  0  0  0  0  0
    3.9019    0.5468    0.2151 C   0  0  0  0  0  0  0  0  0  0  0  0
    4.6907    0.2505   -0.8911 C   0  0  0  0  0  0  0  0  0  0  0  0
    3.9684   -0.3047    1.3061 C   0  0  0  0  0  0  0  0  0  0  0  0
    5.5112   -0.8719   -0.8721 C   0  0  0  0  0  0  0  0  0  0  0  0
    5.5060   -1.6600    0.2676 C   0  0  0  0  0  0  0  0  0  0  0  0
   -1.8055    1.3837   -1.8148 H   0  0  0  0  0  0  0  0  0  0  0  0
   -2.7973    1.8425   -0.5840 H   0  0  0  0  0  0  0  0  0  0  0  0
   -1.4468    1.2635    1.2323 H   0  0  0  0  0  0  0  0  0  0  0  0
   -0.2873    0.3918    0.3094 H   0  0  0  0  0  0  0  0  0  0  0  0
   -0.8960    3.4129    0.2223 H   0  0  0  0  0  0  0  0  0  0  0  0
    0.2255    2.6440   -0.9004 H   0  0  0  0  0  0  0  0  0  0  0  0
   -4.5675   -2.3876   -0.9075 H   0  0  0  0  0  0  0  0  0  0  0  0
   -5.7828   -1.5783    0.0091 H   0  0  0  0  0  0  0  0  0  0  0  0
   -5.1906    0.2074    1.5489 H   0  0  0  0  0  0  0  0  0  0  0  0
   -3.9104    1.3139    1.1578 H   0  0  0  0  0  0  0  0  0  0  0  0
    1.4266    3.6771    1.0029 H   0  0  0  0  0  0  0  0  0  0  0  0
    0.5124    2.6867    2.1508 H   0  0  0  0  0  0  0  0  0  0  0  0
   -4.5694   -2.0275    2.1511 H   0  0  0  0  0  0  0  0  0  0  0  0
   -3.2563   -2.7918    1.2576 H   0  0  0  0  0  0  0  0  0  0  0  0
   -2.6252   -2.3682   -1.4464 H   0  0  0  0  0  0  0  0  0  0  0  0
   -6.2925    0.7826   -0.5018 H   0  0  0  0  0  0  0  0  0  0  0  0
   -4.8340   -4.5341    0.4091 H   0  0  0  0  0  0  0  0  0  0  0  0
   -6.1610   -3.7636    1.3013 H   0  0  0  0  0  0  0  0  0  0  0  0
   -4.8011   -4.4841    2.1799 H   0  0  0  0  0  0  0  0  0  0  0  0
    1.6906    0.8058    1.5561 H   0  0  0  0  0  0  0  0  0  0  0  0
   -0.6588   -2.2863   -2.6657 H   0  0  0  0  0  0  0  0  0  0  0  0
   -5.4829    3.1737    1.0231 H   0  0  0  0  0  0  0  0  0  0  0  0
   -6.9023    3.0186   -0.0139 H   0  0  0  0  0  0  0  0  0  0  0  0
   -6.8000    2.0550    1.4668 H   0  0  0  0  0  0  0  0  0  0  0  0
   -0.5885    0.6272   -2.9783 H   0  0  0  0  0  0  0  0  0  0  0  0
    0.6828   -0.4805   -2.9803 H   0  0  0  0  0  0  0  0  0  0  0  0
    0.3847    0.1876   -1.4704 H   0  0  0  0  0  0  0  0  0  0  0  0
    4.6756    0.8801   -1.7765 H   0  0  0  0  0  0  0  0  0  0  0  0
    3.4082   -0.1332    2.2191 H   0  0  0  0  0  0  0  0  0  0  0  0
    6.1296   -1.1094   -1.7316 H   0  0  0  0  0  0  0  0  0  0  0  0
    6.3361   -3.3758    1.1047 H   0  0  0  0  0  0  0  0  0  0  0  0
    6.5671   -3.2403   -0.6128 H   0  0  0  0  0  0  0  0  0  0  0  0
  1 19  2  0  0  0  0
  2 12  1  0  0  0  0
  2 18  1  0  0  0  0
  2 41  1  0  0  0  0
  3 14  1  0  0  0  0
  3 19  1  0  0  0  0
  3 45  1  0  0  0  0
  4 23  1  0  0  0  0
  4 25  2  0  0  0  0
  5 25  1  0  0  0  0
  5 56  1  0  0  0  0
  5 57  1  0  0  0  0
  6  7  1  0  0  0  0
  6  9  1  0  0  0  0
  6 26  1  0  0  0  0
  6 27  1  0  0  0  0
  7 10  1  0  0  0  0
  7 28  1  0  0  0  0
  7 29  1  0  0  0  0
  8  9  2  0  0  0  0
  8 11  1  0  0  0  0
  8 12  1  0  0  0  0
  9 15  1  0  0  0  0
 10 14  1  0  0  0  0
 10 30  1  0  0  0  0
 10 31  1  0  0  0  0
 11 13  1  0  0  0  0
 11 32  1  0  0  0  0
 11 33  1  0  0  0  0
 12 34  1  0  0  0  0
 12 35  1  0  0  0  0
 13 16  1  0  0  0  0
 13 38  1  0  0  0  0
 13 39  1  0  0  0  0
 14 36  1  0  0  0  0
 14 37  1  0  0  0  0
 15 17  2  0  0  0  0
 15 40  1  0  0  0  0
 16 42  1  0  0  0  0
 16 43  1  0  0  0  0
 16 44  1  0  0  0  0
 17 20  1  0  0  0  0
 17 46  1  0  0  0  0
 18 47  1  0  0  0  0
 18 48  1  0  0  0  0
 18 49  1  0  0  0  0
 19 21  1  0  0  0  0
 20 50  1  0  0  0  0
 20 51  1  0  0  0  0
 20 52  1  0  0  0  0
 21 22  1  0  0  0  0
 21 23  2  0  0  0  0
 22 24  2  0  0  0  0
 22 53  1  0  0  0  0
 23 54  1  0  0  0  0
 24 25  1  0  0  0  0
 24 55  1  0  0  0  0
M  END
>  <PUBCHEM_COMPOUND_CID>
156301266

>  <PUBCHEM_CONFORMER_RMSD>
1

>  <PUBCHEM_CONFORMER_DIVERSEORDER>
1
9
64
6
57
81
53
22
5
32
46
28
19
24
67
61
79
45
43
33
70
66
59
51
62
49
30
14
56
21
38
25
65
55
13
47
75
36
74
50
54
3
4
44
37
76
39
20
82
8
78
63
16
34
42
72
2
40
48
41
60
29
31
80
71
15
68
7
12
73
10
77
52
26
35
17
23
18
58
69
27
11

>  <PUBCHEM_MMFF94_PARTIAL_CHARGES>
30
1 -0.57
11 0.14
12 0.41
14 0.3
15 -0.15
17 -0.29
18 0.27
19 0.54
2 -0.9
20 0.14
21 0.09
22 -0.15
23 0.16
24 -0.15
25 0.41
3 -0.73
4 -0.62
40 0.15
41 0.36
45 0.37
46 0.15
5 -0.9
53 0.15
54 0.15
55 0.15
56 0.4
57 0.4
6 0.14
8 -0.28
9 -0.14

>  <PUBCHEM_EFFECTIVE_ROTOR_COUNT>
12

>  <PUBCHEM_PHARMACOPHORE_FEATURES>
10
1 1 acceptor
1 16 hydrophobe
1 2 cation
1 2 donor
1 20 hydrophobe
1 3 donor
1 5 donor
3 4 5 25 cation
5 6 7 9 10 15 hydrophobe
6 4 21 22 23 24 25 rings

>  <PUBCHEM_HEAVY_ATOM_COUNT>
25

>  <PUBCHEM_ATOM_DEF_STEREO_COUNT>
0

>  <PUBCHEM_ATOM_UDEF_STEREO_COUNT>
0

>  <PUBCHEM_BOND_DEF_STEREO_COUNT>
2

>  <PUBCHEM_BOND_UDEF_STEREO_COUNT>
0

>  <PUBCHEM_ISOTOPIC_ATOM_COUNT>
0

>  <PUBCHEM_COMPONENT_COUNT>
1

>  <PUBCHEM_CACTVS_TAUTO_COUNT>
-1

>  <PUBCHEM_CONFORMER_ID>
0950F7D200000001

>  <PUBCHEM_MMFF94_ENERGY>
68.579

>  <PUBCHEM_FEATURE_SELFOVERLAP>
50.769

>  <PUBCHEM_SHAPE_FINGERPRINT>
10498660 4 12035733089792378484
10928967 22 18341887537194720190
11135926 11 18198045067163816508
11387372 6 17822302305751986531
117089 54 18337399321913694962
11756154 5 18410004426104023178
11796584 16 18408890620085957916
12107183 9 18343023251080637801
12422481 6 17561087981743689622
12633046 712 18336540638050355933
12633257 1 16558466487017847452
14251764 30 18261677064019763842
14420673 8 18411139104469766339
14767858 380 11314322658441779033
15537594 2 18201155580946556476
16110190 28 17988633130282051604
19319366 153 17693379257940381188
20511986 3 8574436370575284444
21315759 148 18190182484575830449
21315763 191 18259703389102672840
21403212 168 17845649232249807877
22950370 63 18334859441236133568
235170 7 16298373648592431446
3004659 81 18412827975984559052
3680242 22 18271811185699743646
44062 13 18410008840955226849
5104073 3 18272091642764281881
53794403 172 11171357555434479198
54039377 194 18411985724750997222
56633871 153 17989481922682702142
7970288 3 18336262324301560722
8863177 126 18336830908550142562

>  <PUBCHEM_SHAPE_MULTIPOLES>
488.69
16.02
3.79
1.65
4.83
0.99
0.69
7.86
-4.36
-2.78
-1.6
-0.2
0.73
0.55

>  <PUBCHEM_SHAPE_SELFOVERLAP>
969.764

>  <PUBCHEM_SHAPE_VOLUME>
287.9

>  <PUBCHEM_COORDINATE_TYPE>
2
5
10

$$$$
