156784573
 OpenBabel01182520543D

 30 31  0  0  0  0  0  0  0  0999 V2000
    4.2718    0.6672   -0.2147 F   0  0  0  0  0  0  0  0  0  0  0  0
    3.6003   -1.3162    0.3746 F   0  0  0  0  0  0  0  0  0  0  0  0
   -1.1900    2.5067    1.0044 O   0  0  0  0  0  0  0  0  0  0  0  0
    0.3111   -0.3986    0.0201 N   0  0  0  0  0  0  0  0  0  0  0  0
   -1.5173   -1.8841    0.0550 N   0  0  0  0  0  0  0  0  0  0  0  0
   -1.1673    2.4369   -1.2875 N   0  0  0  0  0  0  0  0  0  0  0  0
    3.1661   -0.0891   -0.0096 C   0  0  0  0  0  0  0  0  0  0  0  0
    2.3838   -0.2112   -1.3025 C   0  0  0  0  0  0  0  0  0  0  0  0
    2.3284    0.5204    1.0971 C   0  0  0  0  0  0  0  0  0  0  0  0
    1.0770   -0.9727   -1.0960 C   0  0  0  0  0  0  0  0  0  0  0  0
    1.0184   -0.2390    1.2963 C   0  0  0  0  0  0  0  0  0  0  0  0
   -1.0738   -0.6073    0.0251 C   0  0  0  0  0  0  0  0  0  0  0  0
   -1.9040    0.5016   -0.0040 C   0  0  0  0  0  0  0  0  0  0  0  0
   -3.2778    0.2863   -0.0023 C   0  0  0  0  0  0  0  0  0  0  0  0
   -1.3961    1.8661   -0.0400 C   0  0  0  0  0  0  0  0  0  0  0  0
   -2.8585   -2.0540    0.0557 C   0  0  0  0  0  0  0  0  0  0  0  0
   -3.7722   -1.0129    0.0281 C   0  0  0  0  0  0  0  0  0  0  0  0
    2.9903   -0.7229   -2.0580 H   0  0  0  0  0  0  0  0  0  0  0  0
    2.1718    0.7919   -1.6933 H   0  0  0  0  0  0  0  0  0  0  0  0
    2.1158    1.5689    0.8540 H   0  0  0  0  0  0  0  0  0  0  0  0
    2.8955    0.5228    2.0347 H   0  0  0  0  0  0  0  0  0  0  0  0
    0.4956   -0.9258   -2.0253 H   0  0  0  0  0  0  0  0  0  0  0  0
    1.2847   -2.0301   -0.8903 H   0  0  0  0  0  0  0  0  0  0  0  0
    1.2181   -1.2293    1.7240 H   0  0  0  0  0  0  0  0  0  0  0  0
    0.4003    0.3072    2.0188 H   0  0  0  0  0  0  0  0  0  0  0  0
   -3.9724    1.1219   -0.0249 H   0  0  0  0  0  0  0  0  0  0  0  0
   -3.1928   -3.0859    0.0799 H   0  0  0  0  0  0  0  0  0  0  0  0
   -4.8391   -1.2046    0.0299 H   0  0  0  0  0  0  0  0  0  0  0  0
   -1.3356    1.9305   -2.1510 H   0  0  0  0  0  0  0  0  0  0  0  0
   -0.8194    3.3862   -1.3712 H   0  0  0  0  0  0  0  0  0  0  0  0
  1  7  1  0  0  0  0
  2  7  1  0  0  0  0
  3 15  2  0  0  0  0
  4 10  1  0  0  0  0
  4 11  1  0  0  0  0
  4 12  1  0  0  0  0
  5 12  1  0  0  0  0
  5 16  2  0  0  0  0
  6 15  1  0  0  0  0
  6 29  1  0  0  0  0
  6 30  1  0  0  0  0
  7  8  1  0  0  0  0
  7  9  1  0  0  0  0
  8 10  1  0  0  0  0
  8 18  1  0  0  0  0
  8 19  1  0  0  0  0
  9 11  1  0  0  0  0
  9 20  1  0  0  0  0
  9 21  1  0  0  0  0
 10 22  1  0  0  0  0
 10 23  1  0  0  0  0
 11 24  1  0  0  0  0
 11 25  1  0  0  0  0
 12 13  2  0  0  0  0
 13 14  1  0  0  0  0
 13 15  1  0  0  0  0
 14 17  2  0  0  0  0
 14 26  1  0  0  0  0
 16 17  1  0  0  0  0
 16 27  1  0  0  0  0
 17 28  1  0  0  0  0
M  END
>  <PUBCHEM_COMPOUND_CID>
156784573

>  <PUBCHEM_CONFORMER_RMSD>
0.6

>  <PUBCHEM_CONFORMER_DIVERSEORDER>
1
3
9
14
7
4
8
5
6
10
16
13
18
15
17
11
12
2

>  <PUBCHEM_MMFF94_PARTIAL_CHARGES>
20
1 -0.34
10 0.37
11 0.37
12 0.41
13 0.09
14 -0.15
15 0.54
16 0.16
17 -0.15
2 -0.34
26 0.15
27 0.15
28 0.15
29 0.37
3 -0.57
30 0.37
4 -0.84
5 -0.62
6 -0.8
7 0.68

>  <PUBCHEM_EFFECTIVE_ROTOR_COUNT>
3.2

>  <PUBCHEM_PHARMACOPHORE_FEATURES>
6
1 3 acceptor
1 4 cation
1 5 acceptor
1 6 donor
6 4 7 8 9 10 11 rings
6 5 12 13 14 16 17 rings

>  <PUBCHEM_HEAVY_ATOM_COUNT>
17

>  <PUBCHEM_ATOM_DEF_STEREO_COUNT>
0

>  <PUBCHEM_ATOM_UDEF_STEREO_COUNT>
0

>  <PUBCHEM_BOND_DEF_STEREO_COUNT>
0

>  <PUBCHEM_BOND_UDEF_STEREO_COUNT>
0

>  <PUBCHEM_ISOTOPIC_ATOM_COUNT>
0

>  <PUBCHEM_COMPONENT_COUNT>
1

>  <PUBCHEM_CACTVS_TAUTO_COUNT>
-1

>  <PUBCHEM_CONFORMER_ID>
095857BD00000001

>  <PUBCHEM_MMFF94_ENERGY>
62.4242

>  <PUBCHEM_FEATURE_SELFOVERLAP>
30.446

>  <PUBCHEM_SHAPE_FINGERPRINT>
10498660 4 18407757027808415796
11132069 177 18341043094799265233
11578080 2 12965140243749611058
12138202 97 18267576918823116756
12173636 292 18197778786958316597
12186901 62 18409731724995612876
12236239 1 17530962496861148619
13296909 8 18114455669859391532
13380536 127 18187354403098231658
13538477 17 18114172004233042923
13581323 91 18409164402934529430
13583140 156 18054753305737522146
13764800 53 18269558251893645961
14115302 16 17530969141460593563
14181834 199 17837759398685387037
14614273 12 18263642857998342757
15219456 202 17989200490602357826
15375462 6 18411980278162389662
15653759 3 18344142592461162202
15848700 24 18269544100203122471
16752209 62 18189320312993642917
16945 1 18270696297830552551
17134986 127 17544194883263185813
17357779 13 18198603580040734389
17844478 74 18060140950571757491
18175812 5 17917147303179867231
18186145 218 18055640512488677316
18534176 82 18343014450254349813
19049666 15 17915465986755700022
192875 21 17312824900664661292
19868273 325 18409166653476066177
200 152 16588020233926953547
20344682 1 17988646328067758127
20510252 161 18412545383819998729
21029758 11 18342451591259957333
21029758 27 18188778374241877099
21501502 16 18269557139433721650
21524375 3 17908976613394159453
21947302 44 17771063787537502028
22112679 90 18187945983404121909
22802520 49 17772199617266360188
228727 97 17967532393315454859
2297311 6 18342190980923290494
23236772 104 17676205753796914161
23402539 116 18411692197315039975
23419403 2 18051383426810087805
23557571 272 18341902908744872804
23559900 14 18341046329384496494
2748010 2 18124299756550700585
3286 77 17131828819585382643
350125 39 17833558890483847233
353137 74 18333730187133587843
474 4 17097222851354421460
58734987 51 18340207487795577505
5902787 121 18117840130022220307
6333449 129 18341894056774999597
6442390 28 17838917944739503497
6992083 37 17825110311808053116
7364860 26 17765716115394235961
77492 1 17530683207980502634
81228 2 18337689532968897129
90316 7 18260824882542264469
9709674 26 18341899545728087942

>  <PUBCHEM_SHAPE_MULTIPOLES>
314.49
6.28
2.15
1.1
2.7
1.01
-0.06
-1.6
0.04
-1.67
-0.11
0.55
0.22
0.21

>  <PUBCHEM_SHAPE_SELFOVERLAP>
668.107

>  <PUBCHEM_SHAPE_VOLUME>
175.6

>  <PUBCHEM_COORDINATE_TYPE>
2
5
10

$$$$
