156709507
 OpenBabel01182520543D

 17 17  0  0  0  0  0  0  0  0999 V2000
   -3.9617   -0.4452    0.0703 P   0  0  0  0  0  0  0  0  0  0  0  0
    3.6661    0.3641    0.0273 O   0  0  0  0  0  0  0  0  0  0  0  0
   -0.4193    1.3375   -0.0061 N   0  0  0  0  0  0  0  0  0  0  0  0
   -2.6734    0.5673   -0.0347 N   0  0  0  0  0  0  0  0  0  0  0  0
   -1.2826    0.2973   -0.0234 C   0  0  0  0  0  0  0  0  0  0  0  0
    1.3864   -0.2698    0.0001 C   0  0  0  0  0  0  0  0  0  0  0  0
   -0.8943   -1.0328   -0.0305 C   0  0  0  0  0  0  0  0  0  0  0  0
    0.4675   -1.3134   -0.0188 C   0  0  0  0  0  0  0  0  0  0  0  0
    0.8963    1.0261    0.0054 C   0  0  0  0  0  0  0  0  0  0  0  0
    2.8150   -0.5311    0.0105 C   0  0  0  0  0  0  0  0  0  0  0  0
   -1.5828   -1.8695   -0.0496 H   0  0  0  0  0  0  0  0  0  0  0  0
    0.7988   -2.3484   -0.0256 H   0  0  0  0  0  0  0  0  0  0  0  0
    1.5566    1.8878    0.0191 H   0  0  0  0  0  0  0  0  0  0  0  0
   -2.8345    1.5723   -0.0175 H   0  0  0  0  0  0  0  0  0  0  0  0
    3.1234   -1.5904    0.0028 H   0  0  0  0  0  0  0  0  0  0  0  0
   -4.9656    0.4618   -0.3440 H   0  0  0  0  0  0  0  0  0  0  0  0
   -4.2282   -0.2876    1.4509 H   0  0  0  0  0  0  0  0  0  0  0  0
  1  4  1  0  0  0  0
  1 16  1  0  0  0  0
  1 17  1  0  0  0  0
  2 10  2  0  0  0  0
  3  5  2  0  0  0  0
  3  9  1  0  0  0  0
  4  5  1  0  0  0  0
  4 14  1  0  0  0  0
  5  7  1  0  0  0  0
  6  8  1  0  0  0  0
  6  9  2  0  0  0  0
  6 10  1  0  0  0  0
  7  8  2  0  0  0  0
  7 11  1  0  0  0  0
  8 12  1  0  0  0  0
  9 13  1  0  0  0  0
 10 15  1  0  0  0  0
M  END
>  <PUBCHEM_COMPOUND_CID>
156709507

>  <PUBCHEM_CONFORMER_RMSD>
0.4

>  <PUBCHEM_CONFORMER_DIVERSEORDER>
1
9
10
5
3
4
7
6
2
8

>  <PUBCHEM_MMFF94_PARTIAL_CHARGES>
17
1 -0.07
10 0.42
11 0.15
12 0.15
13 0.15
14 0.4
15 0.06
16 0.1
17 0.1
2 -0.57
3 -0.62
4 -0.62
5 0.41
6 0.09
7 -0.15
8 -0.15
9 0.16

>  <PUBCHEM_EFFECTIVE_ROTOR_COUNT>
2

>  <PUBCHEM_PHARMACOPHORE_FEATURES>
4
1 2 acceptor
1 4 donor
3 3 4 5 cation
6 3 5 6 7 8 9 rings

>  <PUBCHEM_HEAVY_ATOM_COUNT>
10

>  <PUBCHEM_ATOM_DEF_STEREO_COUNT>
0

>  <PUBCHEM_ATOM_UDEF_STEREO_COUNT>
0

>  <PUBCHEM_BOND_DEF_STEREO_COUNT>
0

>  <PUBCHEM_BOND_UDEF_STEREO_COUNT>
0

>  <PUBCHEM_ISOTOPIC_ATOM_COUNT>
0

>  <PUBCHEM_COMPONENT_COUNT>
1

>  <PUBCHEM_CACTVS_TAUTO_COUNT>
-1

>  <PUBCHEM_CONFORMER_ID>
0957328300000001

>  <PUBCHEM_MMFF94_ENERGY>
27.1873

>  <PUBCHEM_FEATURE_SELFOVERLAP>
20.297

>  <PUBCHEM_SHAPE_FINGERPRINT>
10219947 1 18410858750083660039
10857977 72 18410282610327961984
11062470 55 18409730659743606892
12032990 46 18411424994308899279
12932764 1 15769481033006794029
14252887 29 18201733837878856531
14325111 11 18410573946517896462
14993402 34 18410013247106213436
16945 1 18341040861284285340
193761 8 17762337319961077836
20645476 183 17750535003804972606
20645477 70 18269267955455179071
20871998 184 18129947913207024734
21040471 1 18410855434632755574
23235685 24 18411978057252737022
23402539 116 18272922817398110149
23402655 69 18194945367828107693
23552423 10 17974012751957599470
23559900 14 18343022220989515252
2748010 2 18122625221452339860
29004967 10 18336268950939621785
369184 2 16370443341468660704
528886 8 18411975866787767683
5460574 1 18411136918120208076

>  <PUBCHEM_SHAPE_MULTIPOLES>
193.81
5.59
1.25
0.6
1.7
0
0
-0.3
-0.14
-0.01
0.01
0.05
-0.02
0.02

>  <PUBCHEM_SHAPE_SELFOVERLAP>
391.15

>  <PUBCHEM_SHAPE_VOLUME>
116.2

>  <PUBCHEM_COORDINATE_TYPE>
2
5
10

$$$$
