156894050
 OpenBabel01182520543D

 14 14  0  0  0  0  0  0  0  0999 V2000
    1.0150   -2.7866    0.0008 O   0  0  0  0  0  0  0  0  0  0  0  0
   -0.8175    1.6292   -0.0002 N   0  0  0  0  0  0  0  0  0  0  0  0
    1.4993    1.2316    0.0000 N   0  3  0  0  0  0  0  0  0  0  0  0
    0.0312   -0.6346   -0.0011 C   0  0  0  0  0  0  0  0  0  0  0  0
   -1.2682   -1.1296   -0.0002 C   0  0  0  0  0  0  0  0  0  0  0  0
    0.2013    0.7405   -0.0010 C   0  0  0  0  0  0  0  0  0  0  0  0
   -2.3426   -0.2468    0.0006 C   0  0  0  0  0  0  0  0  0  0  0  0
   -2.0662    1.1109    0.0006 C   0  0  0  0  0  0  0  0  0  0  0  0
    1.1538   -1.5610   -0.0004 C   0  0  0  0  0  0  0  0  0  0  0  0
    2.5940    1.6462    0.0008 C   0  5  0  0  0  0  0  0  0  0  0  0
   -1.4687   -2.1976    0.0000 H   0  0  0  0  0  0  0  0  0  0  0  0
   -3.3640   -0.6098    0.0014 H   0  0  0  0  0  0  0  0  0  0  0  0
   -2.8689    1.8410    0.0013 H   0  0  0  0  0  0  0  0  0  0  0  0
    2.1719   -1.1449   -0.0011 H   0  0  0  0  0  0  0  0  0  0  0  0
  1  9  2  0  0  0  0
  2  6  1  0  0  0  0
  2  8  2  0  0  0  0
  3  6  1  0  0  0  0
  3 10  3  0  0  0  0
  4  5  1  0  0  0  0
  4  6  2  0  0  0  0
  4  9  1  0  0  0  0
  5  7  2  0  0  0  0
  5 11  1  0  0  0  0
  7  8  1  0  0  0  0
  7 12  1  0  0  0  0
  8 13  1  0  0  0  0
  9 14  1  0  0  0  0
M  CHG  2   3   1  10  -1
M  END
>  <PUBCHEM_COMPOUND_CID>
156894050

>  <PUBCHEM_CONFORMER_RMSD>
0.4

>  <PUBCHEM_CONFORMER_DIVERSEORDER>
1
2

>  <PUBCHEM_MMFF94_PARTIAL_CHARGES>
14
1 -0.57
10 -0.37
11 0.15
12 0.15
13 0.15
14 0.06
2 -0.62
3 0.23
4 0.09
5 -0.15
6 0.45
7 -0.15
8 0.16
9 0.42

>  <PUBCHEM_EFFECTIVE_ROTOR_COUNT>
1

>  <PUBCHEM_PHARMACOPHORE_FEATURES>
3
1 1 acceptor
1 2 acceptor
6 2 4 5 6 7 8 rings

>  <PUBCHEM_HEAVY_ATOM_COUNT>
10

>  <PUBCHEM_ATOM_DEF_STEREO_COUNT>
0

>  <PUBCHEM_ATOM_UDEF_STEREO_COUNT>
0

>  <PUBCHEM_BOND_DEF_STEREO_COUNT>
0

>  <PUBCHEM_BOND_UDEF_STEREO_COUNT>
0

>  <PUBCHEM_ISOTOPIC_ATOM_COUNT>
0

>  <PUBCHEM_COMPONENT_COUNT>
1

>  <PUBCHEM_CACTVS_TAUTO_COUNT>
-1

>  <PUBCHEM_CONFORMER_ID>
095A036200000001

>  <PUBCHEM_MMFF94_ENERGY>
22.042

>  <PUBCHEM_FEATURE_SELFOVERLAP>
15.223

>  <PUBCHEM_SHAPE_FINGERPRINT>
100427 49 17907295451446032654
10857977 72 17761758581813761610
12423570 1 18121471627754693401
12716758 59 18052543458837615124
13024252 1 14491848659049501092
16945 1 18266741285748990309
18185500 45 17616820928912020463
193761 8 18338517417874554981
20645464 45 17771903002920769496
20645476 183 17606694771002981196
20645477 70 18338789028060707231
20871998 184 17407408399979488166
21040471 1 18194682798463580708
23552423 10 18337113362747436095
23559900 14 16828111470518805894
241688 4 17402325975735398682
2748010 2 18337676437313041702
81228 2 17474667729341967498

>  <PUBCHEM_SHAPE_MULTIPOLES>
189.96
3.03
2.46
0.59
0.65
1.56
0
-1.45
0
0.76
0
-0.02
0
0

>  <PUBCHEM_SHAPE_SELFOVERLAP>
396.133

>  <PUBCHEM_SHAPE_VOLUME>
106.4

>  <PUBCHEM_COORDINATE_TYPE>
2
5
10

$$$$
