156804607
 OpenBabel01182520543D

 25 25  0  0  0  0  0  0  0  0999 V2000
   -2.1837    0.2320    0.1062 S   0  0  0  0  0  0  0  0  0  0  0  0
   -2.2523   -0.5498    1.3284 O   0  0  0  0  0  0  0  0  0  0  0  0
    0.2469   -2.3615    1.0220 O   0  0  0  0  0  0  0  0  0  0  0  0
   -1.0010    0.2452   -0.8928 N   0  0  0  0  0  0  0  0  0  0  0  0
    0.7112    1.8609   -0.4723 N   0  0  0  0  0  0  0  0  0  0  0  0
    1.0094   -2.6229   -1.1247 N   0  0  0  0  0  0  0  0  0  0  0  0
   -3.6276   -0.1872   -0.8437 C   0  0  0  0  0  0  0  0  0  0  0  0
   -2.5190    1.9203    0.5567 C   0  0  0  0  0  0  0  0  0  0  0  0
    0.3544    0.5573   -0.4393 C   0  0  0  0  0  0  0  0  0  0  0  0
    1.1864   -0.4640   -0.0096 C   0  0  0  0  0  0  0  0  0  0  0  0
    2.4670   -0.1256    0.4135 C   0  0  0  0  0  0  0  0  0  0  0  0
    2.8707    1.2047    0.3943 C   0  0  0  0  0  0  0  0  0  0  0  0
    0.7743   -1.8607    0.0147 C   0  0  0  0  0  0  0  0  0  0  0  0
    1.9634    2.1514   -0.0535 C   0  0  0  0  0  0  0  0  0  0  0  0
   -3.5433   -1.2306   -1.1553 H   0  0  0  0  0  0  0  0  0  0  0  0
   -3.6876    0.4666   -1.7160 H   0  0  0  0  0  0  0  0  0  0  0  0
   -4.5102   -0.0616   -0.2131 H   0  0  0  0  0  0  0  0  0  0  0  0
   -1.7243    2.2683    1.2198 H   0  0  0  0  0  0  0  0  0  0  0  0
   -3.4748    1.9567    1.0837 H   0  0  0  0  0  0  0  0  0  0  0  0
   -2.5604    2.5332   -0.3457 H   0  0  0  0  0  0  0  0  0  0  0  0
    3.1588   -0.8887    0.7603 H   0  0  0  0  0  0  0  0  0  0  0  0
    3.8641    1.4917    0.7195 H   0  0  0  0  0  0  0  0  0  0  0  0
    2.2292    3.2028   -0.0879 H   0  0  0  0  0  0  0  0  0  0  0  0
    1.4458   -2.2326   -1.9539 H   0  0  0  0  0  0  0  0  0  0  0  0
    0.7483   -3.6026   -1.1602 H   0  0  0  0  0  0  0  0  0  0  0  0
  1  2  2  0  0  0  0
  1  4  2  0  0  0  0
  1  7  1  0  0  0  0
  1  8  1  0  0  0  0
  3 13  2  0  0  0  0
  4  9  1  0  0  0  0
  5  9  1  0  0  0  0
  5 14  2  0  0  0  0
  6 13  1  0  0  0  0
  6 24  1  0  0  0  0
  6 25  1  0  0  0  0
  7 15  1  0  0  0  0
  7 16  1  0  0  0  0
  7 17  1  0  0  0  0
  8 18  1  0  0  0  0
  8 19  1  0  0  0  0
  8 20  1  0  0  0  0
  9 10  2  0  0  0  0
 10 11  1  0  0  0  0
 10 13  1  0  0  0  0
 11 12  2  0  0  0  0
 11 21  1  0  0  0  0
 12 14  1  0  0  0  0
 12 22  1  0  0  0  0
 14 23  1  0  0  0  0
M  END
>  <PUBCHEM_COMPOUND_CID>
156804607

>  <PUBCHEM_CONFORMER_RMSD>
0.6

>  <PUBCHEM_CONFORMER_DIVERSEORDER>
1
9
8
6
3
10
11
2
4
5
7
12

>  <PUBCHEM_MMFF94_PARTIAL_CHARGES>
19
1 1.03
10 0.09
11 -0.15
12 -0.15
13 0.54
14 0.16
2 -0.65
21 0.15
22 0.15
23 0.15
24 0.37
25 0.37
3 -0.57
4 -0.99
5 -0.62
6 -0.8
7 0.11
8 0.11
9 0.71

>  <PUBCHEM_EFFECTIVE_ROTOR_COUNT>
2

>  <PUBCHEM_PHARMACOPHORE_FEATURES>
5
1 2 acceptor
1 3 acceptor
1 5 acceptor
1 6 donor
6 5 9 10 11 12 14 rings

>  <PUBCHEM_HEAVY_ATOM_COUNT>
14

>  <PUBCHEM_ATOM_DEF_STEREO_COUNT>
0

>  <PUBCHEM_ATOM_UDEF_STEREO_COUNT>
0

>  <PUBCHEM_BOND_DEF_STEREO_COUNT>
0

>  <PUBCHEM_BOND_UDEF_STEREO_COUNT>
0

>  <PUBCHEM_ISOTOPIC_ATOM_COUNT>
0

>  <PUBCHEM_COMPONENT_COUNT>
1

>  <PUBCHEM_CACTVS_TAUTO_COUNT>
-1

>  <PUBCHEM_CONFORMER_ID>
0958A5FF00000001

>  <PUBCHEM_MMFF94_ENERGY>
34.7614

>  <PUBCHEM_FEATURE_SELFOVERLAP>
25.373

>  <PUBCHEM_SHAPE_FINGERPRINT>
1 1 18410853282806680662
10219947 1 18334852835702850980
11471102 22 18261684743394727216
12326174 3 18338229354233603902
12423570 1 17264087724697226270
12524768 44 18050847710995785575
12696612 119 18337672992680614025
13380535 76 18335978765769293259
14178342 30 18339073796559844217
14617773 55 17548690133515928118
14648413 74 18267874869510711113
15076042 46 18048603908369065904
15207287 21 17677034802997301555
15490181 8 18337686311395343404
15852999 172 17676195892989871787
161256 15 17978795605994672716
16945 1 18341902899817334494
17990270 104 18267020548870459983
193761 8 17761204415437627996
20201158 50 18259978258778397741
20511035 2 18043252555285716518
20645477 70 18339631262404433719
20871998 22 17837772223009859398
21040471 1 18193559089211657212
21501502 16 18265610983664491941
21524375 3 18339633555310138840
23419403 2 14785394980721867475
257057 1 17613696142799501107
2748010 2 18191877927004989670
305870 269 18342177752128729920
3060560 45 18411692210025641470
430814 3 18130498716876459566
576247 118 17478632121373933774
58734987 24 17693085684208719294
7364860 26 18271528572366763053
7832392 63 17981046315076893649
81228 2 17331682856410020362

>  <PUBCHEM_SHAPE_MULTIPOLES>
265.28
4.55
2.6
1
2.73
0.86
0.07
-1.57
0.15
-1.09
-0.05
0.37
0.29
-0.05

>  <PUBCHEM_SHAPE_SELFOVERLAP>
530.657

>  <PUBCHEM_SHAPE_VOLUME>
158.8

>  <PUBCHEM_COORDINATE_TYPE>
2
5
10

$$$$
