156831803
 OpenBabel01182520543D

 29 29  0  0  0  0  0  0  0  0999 V2000
    2.5904   -1.5767   -1.1118 O   0  0  0  0  0  0  0  0  0  0  0  0
   -1.7259   -1.2749   -0.0126 N   0  0  0  0  0  0  0  0  0  0  0  0
   -3.2758    0.5344    0.0199 N   0  0  0  0  0  0  0  0  0  0  0  0
    2.6141   -1.5858    1.1812 N   0  0  0  0  0  0  0  0  0  0  0  0
    1.4952    1.5564   -0.0066 C   0  0  0  0  0  0  0  0  0  0  0  0
    0.3851    0.5574   -0.0092 C   0  0  0  0  0  0  0  0  0  0  0  0
    0.6463   -0.8083   -0.0268 C   0  0  0  0  0  0  0  0  0  0  0  0
    1.4991    2.4257    1.2644 C   0  0  0  0  0  0  0  0  0  0  0  0
    1.4791    2.4553   -1.2566 C   0  0  0  0  0  0  0  0  0  0  0  0
   -0.9302    1.0079    0.0067 C   0  0  0  0  0  0  0  0  0  0  0  0
   -1.9405    0.0597    0.0042 C   0  0  0  0  0  0  0  0  0  0  0  0
   -0.4346   -1.6752   -0.0277 C   0  0  0  0  0  0  0  0  0  0  0  0
    2.0011   -1.3369   -0.0434 C   0  0  0  0  0  0  0  0  0  0  0  0
   -4.4034   -0.3391    0.0183 C   0  0  0  0  0  0  0  0  0  0  0  0
    2.4680    1.0530   -0.0216 H   0  0  0  0  0  0  0  0  0  0  0  0
    0.6083    3.0594    1.3322 H   0  0  0  0  0  0  0  0  0  0  0  0
    1.5357    1.8000    2.1631 H   0  0  0  0  0  0  0  0  0  0  0  0
    2.3754    3.0830    1.2771 H   0  0  0  0  0  0  0  0  0  0  0  0
    0.5877    3.0905   -1.2951 H   0  0  0  0  0  0  0  0  0  0  0  0
    2.3554    3.1127   -1.2680 H   0  0  0  0  0  0  0  0  0  0  0  0
    1.5009    1.8509   -2.1703 H   0  0  0  0  0  0  0  0  0  0  0  0
   -1.1650    2.0677    0.0198 H   0  0  0  0  0  0  0  0  0  0  0  0
   -0.2956   -2.7521   -0.0411 H   0  0  0  0  0  0  0  0  0  0  0  0
   -3.4173    1.5084    0.2653 H   0  0  0  0  0  0  0  0  0  0  0  0
   -4.4086   -0.9824    0.9042 H   0  0  0  0  0  0  0  0  0  0  0  0
   -5.3285    0.2458    0.0259 H   0  0  0  0  0  0  0  0  0  0  0  0
   -4.4165   -0.9684   -0.8776 H   0  0  0  0  0  0  0  0  0  0  0  0
    2.1482   -1.4020    2.0641 H   0  0  0  0  0  0  0  0  0  0  0  0
    3.5559   -1.9601    1.2268 H   0  0  0  0  0  0  0  0  0  0  0  0
  1 13  2  0  0  0  0
  2 11  2  0  0  0  0
  2 12  1  0  0  0  0
  3 11  1  0  0  0  0
  3 14  1  0  0  0  0
  3 24  1  0  0  0  0
  4 13  1  0  0  0  0
  4 28  1  0  0  0  0
  4 29  1  0  0  0  0
  5  6  1  0  0  0  0
  5  8  1  0  0  0  0
  5  9  1  0  0  0  0
  5 15  1  0  0  0  0
  6  7  1  0  0  0  0
  6 10  2  0  0  0  0
  7 12  2  0  0  0  0
  7 13  1  0  0  0  0
  8 16  1  0  0  0  0
  8 17  1  0  0  0  0
  8 18  1  0  0  0  0
  9 19  1  0  0  0  0
  9 20  1  0  0  0  0
  9 21  1  0  0  0  0
 10 11  1  0  0  0  0
 10 22  1  0  0  0  0
 12 23  1  0  0  0  0
 14 25  1  0  0  0  0
 14 26  1  0  0  0  0
 14 27  1  0  0  0  0
M  END
>  <PUBCHEM_COMPOUND_CID>
156831803

>  <PUBCHEM_CONFORMER_RMSD>
0.6

>  <PUBCHEM_CONFORMER_DIVERSEORDER>
1
5
3
4
2

>  <PUBCHEM_MMFF94_PARTIAL_CHARGES>
17
1 -0.57
10 -0.15
11 0.41
12 0.16
13 0.54
14 0.37
2 -0.62
22 0.15
23 0.15
24 0.4
28 0.37
29 0.37
3 -0.87
4 -0.8
5 0.14
6 -0.14
7 0.09

>  <PUBCHEM_EFFECTIVE_ROTOR_COUNT>
3

>  <PUBCHEM_PHARMACOPHORE_FEATURES>
6
1 1 acceptor
1 3 donor
1 4 donor
3 2 3 11 cation
3 5 8 9 hydrophobe
6 2 6 7 10 11 12 rings

>  <PUBCHEM_HEAVY_ATOM_COUNT>
14

>  <PUBCHEM_ATOM_DEF_STEREO_COUNT>
0

>  <PUBCHEM_ATOM_UDEF_STEREO_COUNT>
0

>  <PUBCHEM_BOND_DEF_STEREO_COUNT>
0

>  <PUBCHEM_BOND_UDEF_STEREO_COUNT>
0

>  <PUBCHEM_ISOTOPIC_ATOM_COUNT>
0

>  <PUBCHEM_COMPONENT_COUNT>
1

>  <PUBCHEM_CACTVS_TAUTO_COUNT>
-1

>  <PUBCHEM_CONFORMER_ID>
0959103B00000001

>  <PUBCHEM_MMFF94_ENERGY>
51.2357

>  <PUBCHEM_FEATURE_SELFOVERLAP>
30.446

>  <PUBCHEM_SHAPE_FINGERPRINT>
1 1 18267864080611067684
10130415 120 18189054209325394971
10465860 71 18198362683503722670
10980938 120 18340771562898606977
11680986 33 18337957895046755154
12032990 46 18197220252236401023
12423570 1 18043229422449831673
12644460 14 18187939394765988857
12696612 119 18336538404276523226
13380535 21 18193851550735660547
13380535 220 18265621982859628173
13380535 76 18194114342367146411
13380536 305 18408891736814449591
13922767 16 18339633456731638937
14181834 199 18268972310790060356
14344429 50 18335423452051660911
14648413 74 18337114565438713715
14897335 6 18268986664924197669
15490181 7 17695628845850287138
15490181 8 17756989269792020686
16945 1 18270113509518396431
18186145 218 18334010584622074983
18410436 195 18269835328744574592
193761 8 18194683897901608831
20233049 118 17897158022836056711
20339313 130 18271251529733063267
20511035 2 18340202011195563783
20559304 39 18201721755945721657
20606313 2 18411697673413938989
20645476 183 17393615009508803764
20645477 70 18411976984328876679
20708731 107 18411143549423249117
20871998 22 18198342857918982926
21040471 1 17906453590548306708
21501502 16 18267581484779852479
21501925 9 18340476812178140411
21524375 3 17977657946335764572
2255824 54 18261114092691641751
2297311 6 18126001564934620658
2334 1 18194402414646108971
23402539 116 18125990577500721446
23419403 2 17977063982729668284
23552423 10 18262240048279922631
23557571 272 18127699223651119374
2748010 2 18264492952274879215
305870 269 18124022692336851352
3071541 158 18335422318227715725
3071541 250 18270414809863477637
449060 62 18338242694913604693
5104073 3 18411706521896174987
53812653 166 18340769363664562792
53812654 25 18338791204823200870
57177213 63 17974009753785213623
57483677 104 18341335612026130409
58734985 188 18342447115360859264
58734987 33 18336819780410879512
58734987 51 18198628722272830520
7364860 26 18272370914206224776
81228 2 17834968464227112920

>  <PUBCHEM_SHAPE_MULTIPOLES>
267.3
4.9
2.59
0.99
6.17
0.59
-0.02
-0.43
-0.09
-2.44
0.01
-0.78
0.3
-0.03

>  <PUBCHEM_SHAPE_SELFOVERLAP>
548.27

>  <PUBCHEM_SHAPE_VOLUME>
155.3

>  <PUBCHEM_COORDINATE_TYPE>
2
5
10

$$$$
