156831805
 OpenBabel01182520543D

 23 23  0  0  0  0  0  0  0  0999 V2000
    3.0068   -0.6260   -1.1085 O   0  0  0  0  0  0  0  0  0  0  0  0
   -3.1494    0.3654    0.0180 N   0  0  0  0  0  0  0  0  0  0  0  0
   -1.2918   -1.1264   -0.0120 N   0  0  0  0  0  0  0  0  0  0  0  0
    3.0300   -0.6287    1.1845 N   0  0  0  0  0  0  0  0  0  0  0  0
    0.4442    1.0645   -0.0091 C   0  0  0  0  0  0  0  0  0  0  0  0
    0.9533   -0.2293   -0.0253 C   0  0  0  0  0  0  0  0  0  0  0  0
   -0.9318    1.2642    0.0057 C   0  0  0  0  0  0  0  0  0  0  0  0
   -1.7494    0.1456    0.0035 C   0  0  0  0  0  0  0  0  0  0  0  0
    1.3504    2.2516   -0.0067 C   0  0  0  0  0  0  0  0  0  0  0  0
    0.0513   -1.2811   -0.0260 C   0  0  0  0  0  0  0  0  0  0  0  0
    2.3825   -0.4984   -0.0407 C   0  0  0  0  0  0  0  0  0  0  0  0
   -4.0961   -0.7016    0.0165 C   0  0  0  0  0  0  0  0  0  0  0  0
   -1.3513    2.2657    0.0196 H   0  0  0  0  0  0  0  0  0  0  0  0
    1.9581    2.2675    0.9039 H   0  0  0  0  0  0  0  0  0  0  0  0
    0.7898    3.1921   -0.0424 H   0  0  0  0  0  0  0  0  0  0  0  0
    2.0091    2.2348   -0.8814 H   0  0  0  0  0  0  0  0  0  0  0  0
    0.3869   -2.3137   -0.0384 H   0  0  0  0  0  0  0  0  0  0  0  0
   -3.4730    1.3013   -0.2014 H   0  0  0  0  0  0  0  0  0  0  0  0
   -3.9764   -1.3396    0.8983 H   0  0  0  0  0  0  0  0  0  0  0  0
   -5.1133   -0.2979    0.0354 H   0  0  0  0  0  0  0  0  0  0  0  0
   -3.9987   -1.3176   -0.8834 H   0  0  0  0  0  0  0  0  0  0  0  0
    2.5375   -0.5346    2.0670 H   0  0  0  0  0  0  0  0  0  0  0  0
    4.0248   -0.8226    1.2309 H   0  0  0  0  0  0  0  0  0  0  0  0
  1 11  2  0  0  0  0
  2  8  1  0  0  0  0
  2 12  1  0  0  0  0
  2 18  1  0  0  0  0
  3  8  2  0  0  0  0
  3 10  1  0  0  0  0
  4 11  1  0  0  0  0
  4 22  1  0  0  0  0
  4 23  1  0  0  0  0
  5  6  1  0  0  0  0
  5  7  2  0  0  0  0
  5  9  1  0  0  0  0
  6 10  2  0  0  0  0
  6 11  1  0  0  0  0
  7  8  1  0  0  0  0
  7 13  1  0  0  0  0
  9 14  1  0  0  0  0
  9 15  1  0  0  0  0
  9 16  1  0  0  0  0
 10 17  1  0  0  0  0
 12 19  1  0  0  0  0
 12 20  1  0  0  0  0
 12 21  1  0  0  0  0
M  END
>  <PUBCHEM_COMPOUND_CID>
156831805

>  <PUBCHEM_CONFORMER_RMSD>
0.6

>  <PUBCHEM_CONFORMER_DIVERSEORDER>
1
3
2

>  <PUBCHEM_MMFF94_PARTIAL_CHARGES>
17
1 -0.57
10 0.16
11 0.54
12 0.37
13 0.15
17 0.15
18 0.4
2 -0.87
22 0.37
23 0.37
3 -0.62
4 -0.8
5 -0.14
6 0.09
7 -0.15
8 0.41
9 0.14

>  <PUBCHEM_EFFECTIVE_ROTOR_COUNT>
2

>  <PUBCHEM_PHARMACOPHORE_FEATURES>
5
1 1 acceptor
1 2 donor
1 4 donor
3 2 3 8 cation
6 3 5 6 7 8 10 rings

>  <PUBCHEM_HEAVY_ATOM_COUNT>
12

>  <PUBCHEM_ATOM_DEF_STEREO_COUNT>
0

>  <PUBCHEM_ATOM_UDEF_STEREO_COUNT>
0

>  <PUBCHEM_BOND_DEF_STEREO_COUNT>
0

>  <PUBCHEM_BOND_UDEF_STEREO_COUNT>
0

>  <PUBCHEM_ISOTOPIC_ATOM_COUNT>
0

>  <PUBCHEM_COMPONENT_COUNT>
1

>  <PUBCHEM_CACTVS_TAUTO_COUNT>
-1

>  <PUBCHEM_CONFORMER_ID>
0959103D00000001

>  <PUBCHEM_MMFF94_ENERGY>
45.3807

>  <PUBCHEM_FEATURE_SELFOVERLAP>
25.372

>  <PUBCHEM_SHAPE_FINGERPRINT>
10130415 120 18187644682694556626
10219947 1 18272652333306175599
10857977 72 18341037537174783800
11062470 55 13830129494701016075
11206711 2 18262799562560369749
12032990 46 18341056233035827143
12423570 1 18059846285829673582
124424 183 17968085387914498395
13380535 21 18048890872340451925
13380536 305 18337677506701759084
13922767 16 18412818093037684865
14115302 16 17458350744900066962
14128692 85 18341618126353362669
14252887 29 18202007611694394930
14325111 11 18338799022021985933
14344429 50 18335140920697319420
14648413 74 18265900348327177552
14897335 6 18196931299679189573
14911166 2 18409453578729501903
14993402 34 18410580573636681574
16945 1 18410855438780016831
18186145 218 18408321103523063069
193761 8 17906453581810568639
20511035 2 18194404617547295295
20559304 39 18260827073181080034
20645476 183 17604447274377878278
20645477 70 18339920524051525599
20871998 22 18270685259796458366
21040471 1 17762338011883543540
21501502 16 18124028189910625927
21501925 9 18340758329982996851
23380061 330 18341886385916111591
23402539 116 18271792485058839158
23463225 33 18262515871185381162
23552423 10 18044378455087200620
23559900 14 17982447093513354382
2748010 2 18193278722114800399
449060 50 17275095167720861218
53812654 25 18410283705771507946
7364860 26 18200315570847600792
81228 2 18123478180678200648

>  <PUBCHEM_SHAPE_MULTIPOLES>
226.14
5.28
1.67
0.76
3.39
0.83
-0.02
-1.55
-0.1
-0.55
0
-0.52
-0.12
-0.02

>  <PUBCHEM_SHAPE_SELFOVERLAP>
467.721

>  <PUBCHEM_SHAPE_VOLUME>
130.3

>  <PUBCHEM_COORDINATE_TYPE>
2
5
10

$$$$
