157589192
 OpenBabel01182520543D

 20 21  0  0  0  0  0  0  0  0999 V2000
    0.1631   -2.8066   -0.0829 O   0  0  0  0  0  0  0  0  0  0  0  0
   -1.4341   -1.1547    0.1635 N   0  0  0  0  0  0  0  0  0  0  0  0
   -0.8618    1.1380    0.2533 N   0  0  0  0  0  0  0  0  0  0  0  0
    1.3708    1.7934    0.0916 N   0  0  0  0  0  0  0  0  0  0  0  0
   -3.6075    0.9711   -0.8724 N   0  5  0  0  0  0  0  0  0  0  0  0
    0.8864   -0.5621   -0.0105 C   0  0  0  0  0  0  0  0  0  0  0  0
   -1.7414    0.1866    0.2749 C   0  0  0  0  0  0  0  0  0  0  0  0
    0.4876    0.7681    0.1080 C   0  0  0  0  0  0  0  0  0  0  0  0
   -0.1385   -1.6234    0.0170 C   0  0  0  0  0  0  0  0  0  0  0  0
    2.2397   -0.8581   -0.1518 C   0  0  0  0  0  0  0  0  0  0  0  0
   -3.2025    0.4878    0.4263 C   0  0  0  0  0  0  0  0  0  0  0  0
    3.1591    0.1831   -0.1706 C   0  0  0  0  0  0  0  0  0  0  0  0
    2.6792    1.4768   -0.0465 C   0  0  0  0  0  0  0  0  0  0  0  0
   -2.1821   -1.8420    0.1861 H   0  0  0  0  0  0  0  0  0  0  0  0
   -3.3242    1.2505    1.2025 H   0  0  0  0  0  0  0  0  0  0  0  0
   -3.7611   -0.4008    0.7363 H   0  0  0  0  0  0  0  0  0  0  0  0
    2.5896   -1.8815   -0.2470 H   0  0  0  0  0  0  0  0  0  0  0  0
    4.2200   -0.0112   -0.2789 H   0  0  0  0  0  0  0  0  0  0  0  0
    3.3585    2.3231   -0.0555 H   0  0  0  0  0  0  0  0  0  0  0  0
   -3.6145    0.1872   -1.5354 H   0  0  0  0  0  0  0  0  0  0  0  0
  1  9  2  0  0  0  0
  2  7  1  0  0  0  0
  2  9  1  0  0  0  0
  2 14  1  0  0  0  0
  3  7  2  0  0  0  0
  3  8  1  0  0  0  0
  4  8  1  0  0  0  0
  4 13  2  0  0  0  0
  5 11  1  0  0  0  0
  5 20  1  0  0  0  0
  6  8  2  0  0  0  0
  6  9  1  0  0  0  0
  6 10  1  0  0  0  0
  7 11  1  0  0  0  0
 10 12  2  0  0  0  0
 10 17  1  0  0  0  0
 11 15  1  0  0  0  0
 11 16  1  0  0  0  0
 12 13  1  0  0  0  0
 12 18  1  0  0  0  0
 13 19  1  0  0  0  0
M  CHG  1   5  -1
M  END
>  <PUBCHEM_COMPOUND_CID>
157589192

>  <PUBCHEM_CONFORMER_RMSD>
0.4

>  <PUBCHEM_CONFORMER_DIVERSEORDER>
1
2
4
3

>  <PUBCHEM_MMFF94_PARTIAL_CHARGES>
18
1 -0.57
10 -0.15
11 0.01
12 -0.15
13 0.16
14 0.37
17 0.15
18 0.15
19 0.15
2 -0.49
20 0.15
3 -0.63
4 -0.62
5 -1.1
6 0.09
7 0.45
8 0.49
9 0.54

>  <PUBCHEM_EFFECTIVE_ROTOR_COUNT>
1

>  <PUBCHEM_PHARMACOPHORE_FEATURES>
7
1 1 acceptor
1 2 donor
1 4 acceptor
1 5 cation
1 5 donor
6 2 3 6 7 8 9 rings
6 4 6 8 10 12 13 rings

>  <PUBCHEM_HEAVY_ATOM_COUNT>
13

>  <PUBCHEM_ATOM_DEF_STEREO_COUNT>
0

>  <PUBCHEM_ATOM_UDEF_STEREO_COUNT>
0

>  <PUBCHEM_BOND_DEF_STEREO_COUNT>
0

>  <PUBCHEM_BOND_UDEF_STEREO_COUNT>
0

>  <PUBCHEM_ISOTOPIC_ATOM_COUNT>
0

>  <PUBCHEM_COMPONENT_COUNT>
1

>  <PUBCHEM_CACTVS_TAUTO_COUNT>
-1

>  <PUBCHEM_CONFORMER_ID>
09649EC800000001

>  <PUBCHEM_MMFF94_ENERGY>
33.8773

>  <PUBCHEM_FEATURE_SELFOVERLAP>
35.557

>  <PUBCHEM_SHAPE_FINGERPRINT>
1 1 18410011000975636567
10219947 1 18408606928869205721
10967382 1 18411140203601378002
11206711 2 17980484786314211038
11471102 20 18338795603133274245
12138202 78 18049158869667648263
12138202 97 18338519775758755750
12423570 1 17831317346582625232
124424 183 17822285734733721648
12654215 9 18190735332671232261
12730499 353 18188766142576061981
12897270 3 18410294670770286593
13380535 76 18341611550974573846
13897977 150 18410294700856000775
14325111 11 18410576218682261601
14648413 74 18194967563606961856
14897335 6 18340482382603056096
14911166 2 18412551989827859692
15279308 100 18408608088610589636
16945 1 18339648819455162323
18186145 218 18342745108676437853
193761 8 17763183939619647545
20511035 2 18128253600427467172
20606313 2 18337950095576030101
20645476 183 17823718510555348358
20645477 56 18194407916409752304
20645477 70 18268142064359485727
20871998 184 17840600510529733270
21028194 46 18333737935349450817
21040471 1 18339364192109528464
21501502 16 18194964273635255852
21524375 3 18336259119706941563
21639500 275 18338783538443506973
2334 1 18267586990584742291
23402655 69 18341038620108299597
23419403 2 13278266994885281293
23463225 33 18335700477705886610
23552423 10 17901951073547925036
23559900 14 18200323242608867916
25 1 18336263436354704997
257057 1 17255107953119747619
2748010 2 18338806722344583143
3060560 45 18339071610379032879
3071541 250 17836659525700674351
3071541 37 18263085431161860959
4072396 5 18118663457687541360
528886 8 18411415115847013512
53812653 166 18412825798008398016
63268167 104 18341335513210104305
6333449 129 18268712881885754568
7364860 26 18196372511601864575
81228 2 17689993857464245883

>  <PUBCHEM_SHAPE_MULTIPOLES>
241.74
4.83
2.08
0.66
1.98
1.08
-0.04
-2.03
-0.54
-0.41
-0.04
0.22
-0.07
0.18

>  <PUBCHEM_SHAPE_SELFOVERLAP>
523.504

>  <PUBCHEM_SHAPE_VOLUME>
131.4

>  <PUBCHEM_COORDINATE_TYPE>
2
5
10

$$$$
