159305576
 OpenBabel01182520543D

 31 32  0  0  0  0  0  0  0  0999 V2000
    2.2713    2.5557    0.0002 O   0  0  0  0  0  0  0  0  0  0  0  0
   -0.9058    0.0937    0.0002 N   0  0  0  0  0  0  0  0  0  0  0  0
   -0.0016    2.3107   -0.0001 N   0  0  0  0  0  0  0  0  0  0  0  0
    0.5471   -1.8480   -0.0002 N   0  0  0  0  0  0  0  0  0  0  0  0
   -2.0237   -0.8411    0.0001 C   0  0  0  0  0  0  0  0  0  0  0  0
   -1.4654   -2.2660   -0.0003 C   0  0  0  0  0  0  0  0  0  0  0  0
   -2.8677   -0.6015    1.2550 C   0  0  0  0  0  0  0  0  0  0  0  0
   -2.8679   -0.6011   -1.2545 C   0  0  0  0  0  0  0  0  0  0  0  0
    0.3820   -0.4980   -0.0001 C   0  0  0  0  0  0  0  0  0  0  0  0
   -1.0030    1.4789   -0.0001 C   0  0  0  0  0  0  0  0  0  0  0  0
    1.4907    0.3542    0.0000 C   0  0  0  0  0  0  0  0  0  0  0  0
   -2.3739    2.1244   -0.0003 C   0  0  0  0  0  0  0  0  0  0  0  0
    1.2868    1.8236    0.0001 C   0  0  0  0  0  0  0  0  0  0  0  0
    2.7802   -0.1832    0.0001 C   0  0  0  0  0  0  0  0  0  0  0  0
    1.8064   -2.3421   -0.0002 C   0  0  0  0  0  0  0  0  0  0  0  0
    2.9446   -1.5602    0.0000 C   0  0  0  0  0  0  0  0  0  0  0  0
   -1.0600   -2.6255   -0.9608 H   0  0  0  0  0  0  0  0  0  0  0  0
   -1.0600   -2.6260    0.9601 H   0  0  0  0  0  0  0  0  0  0  0  0
   -2.3713   -2.9048   -0.0004 H   0  0  0  0  0  0  0  0  0  0  0  0
   -2.2630   -0.2628    2.1042 H   0  0  0  0  0  0  0  0  0  0  0  0
   -3.3568   -1.5321    1.5705 H   0  0  0  0  0  0  0  0  0  0  0  0
   -3.6944    0.0974    1.1104 H   0  0  0  0  0  0  0  0  0  0  0  0
   -3.6939    0.0986   -1.1098 H   0  0  0  0  0  0  0  0  0  0  0  0
   -2.2632   -0.2631   -2.1040 H   0  0  0  0  0  0  0  0  0  0  0  0
   -3.3580   -1.5313   -1.5697 H   0  0  0  0  0  0  0  0  0  0  0  0
   -2.9299    1.9141   -0.9096 H   0  0  0  0  0  0  0  0  0  0  0  0
   -2.2394    3.2146    0.0008 H   0  0  0  0  0  0  0  0  0  0  0  0
   -2.9312    1.9126    0.9078 H   0  0  0  0  0  0  0  0  0  0  0  0
    3.6603    0.4532    0.0001 H   0  0  0  0  0  0  0  0  0  0  0  0
    1.8753   -3.4249   -0.0002 H   0  0  0  0  0  0  0  0  0  0  0  0
    3.9323   -2.0064    0.0001 H   0  0  0  0  0  0  0  0  0  0  0  0
  1 13  2  0  0  0  0
  2  5  1  0  0  0  0
  2  9  1  0  0  0  0
  2 10  1  0  0  0  0
  3 10  2  0  0  0  0
  3 13  1  0  0  0  0
  4  9  1  0  0  0  0
  4 15  2  0  0  0  0
  5  6  1  0  0  0  0
  5  7  1  0  0  0  0
  5  8  1  0  0  0  0
  6 17  1  0  0  0  0
  6 18  1  0  0  0  0
  6 19  1  0  0  0  0
  7 20  1  0  0  0  0
  7 21  1  0  0  0  0
  7 22  1  0  0  0  0
  8 23  1  0  0  0  0
  8 24  1  0  0  0  0
  8 25  1  0  0  0  0
  9 11  2  0  0  0  0
 10 12  1  0  0  0  0
 11 13  1  0  0  0  0
 11 14  1  0  0  0  0
 12 26  1  0  0  0  0
 12 27  1  0  0  0  0
 12 28  1  0  0  0  0
 14 16  2  0  0  0  0
 14 29  1  0  0  0  0
 15 16  1  0  0  0  0
 15 30  1  0  0  0  0
 16 31  1  0  0  0  0
M  END
>  <PUBCHEM_COMPOUND_CID>
159305576

>  <PUBCHEM_CONFORMER_RMSD>
0.6

>  <PUBCHEM_CONFORMER_DIVERSEORDER>
1

>  <PUBCHEM_MMFF94_PARTIAL_CHARGES>
16
1 -0.57
10 0.44
11 0.09
12 0.06
13 0.69
14 -0.15
15 0.16
16 -0.15
2 -0.52
29 0.15
3 -0.66
30 0.15
31 0.15
4 -0.62
5 0.37
9 0.41

>  <PUBCHEM_EFFECTIVE_ROTOR_COUNT>
1

>  <PUBCHEM_PHARMACOPHORE_FEATURES>
6
1 1 acceptor
1 3 donor
1 4 acceptor
4 5 6 7 8 hydrophobe
6 2 3 9 10 11 13 rings
6 4 9 11 14 15 16 rings

>  <PUBCHEM_HEAVY_ATOM_COUNT>
16

>  <PUBCHEM_ATOM_DEF_STEREO_COUNT>
0

>  <PUBCHEM_ATOM_UDEF_STEREO_COUNT>
0

>  <PUBCHEM_BOND_DEF_STEREO_COUNT>
0

>  <PUBCHEM_BOND_UDEF_STEREO_COUNT>
0

>  <PUBCHEM_ISOTOPIC_ATOM_COUNT>
0

>  <PUBCHEM_COMPONENT_COUNT>
1

>  <PUBCHEM_CACTVS_TAUTO_COUNT>
-1

>  <PUBCHEM_CONFORMER_ID>
097ECF6800000001

>  <PUBCHEM_MMFF94_ENERGY>
109.8541

>  <PUBCHEM_FEATURE_SELFOVERLAP>
30.475

>  <PUBCHEM_SHAPE_FINGERPRINT>
10967382 1 18266459995408433092
11132069 177 18124866864027189738
11206711 2 18409451345288316950
11471102 20 18337949112360672815
11471102 22 18190764074597652259
11680986 33 18338515235809882568
12382932 28 18194962933563346170
12423570 1 17917157108595667215
12524768 44 18336262469628289283
12553582 1 18411142407215467638
12696612 119 18339934743986304138
13140716 1 18194122047617915362
13380535 220 18337108960480142060
13380535 76 17978221991790403600
13897977 150 18194399115731060287
14178342 30 18340473466245525960
14614273 12 17682677311887143174
14617773 55 17989211468749944801
14648413 74 18408885105311221632
16945 1 18410575114859907174
17990270 104 18410007711114888922
193761 8 18410855464470907172
19591789 44 17544487800253857654
19868273 325 18266178327348241158
19973954 147 18410011043787964416
20510252 161 17262145931770948616
20511035 2 18200864089573543188
20588541 1 17906736903702298860
20645476 183 17320739000456318038
20645477 70 18266167504447854655
20871998 184 17983295928335428895
21501502 16 18411138021737210948
22112679 90 17489027166796716015
22721475 48 18409731737817282478
22802520 49 17553778256633389734
2334 1 17834394901293685806
23388829 49 18341879823142662822
23419403 2 16754576411386730529
23463225 33 18192715535938177770
23493267 7 17387399358132932976
23559900 14 18198909107457035046
257057 1 18193536888330596758
2748010 2 18195526978575263190
2897 32 18193840568214186388
34934 24 18120649124432501090
528886 8 18050561846404281858
54173680 148 17977107855567369946
58734987 50 18340772649409301288
589210 1 18410572885650736649
63268167 104 18196652019509570187
7364860 26 18341050808681828416
7832392 63 18197213642202253849
81228 2 17834675998450203826
8809292 202 17974859362910060242

>  <PUBCHEM_SHAPE_MULTIPOLES>
308.46
4.44
3
0.8
0.11
0.89
0
-0.86
0
0.56
0
-0.6
-0.17
0

>  <PUBCHEM_SHAPE_SELFOVERLAP>
665.814

>  <PUBCHEM_SHAPE_VOLUME>
167.6

>  <PUBCHEM_COORDINATE_TYPE>
2
5
10

$$$$
