159748527
 OpenBabel01182520543D

 38 38  0  0  0  0  0  0  0  0999 V2000
    2.4222   -2.2196    0.7366 O   0  0  0  0  0  0  0  0  0  0  0  0
    3.0266   -0.0341    0.1689 N   0  0  0  0  0  0  0  0  0  0  0  0
   -3.2919   -0.1390   -0.6057 N   0  0  0  0  0  0  0  0  0  0  0  0
   -1.4683   -0.1520    0.8825 N   0  0  0  0  0  0  0  0  0  0  0  0
    2.6659    1.3044   -0.2932 C   0  0  0  0  0  0  0  0  0  0  0  0
   -4.2191    0.3305    0.4009 C   0  0  0  0  0  0  0  0  0  0  0  0
    3.3925    1.5972   -1.5992 C   0  0  0  0  0  0  0  0  0  0  0  0
    3.0203    2.3256    0.7800 C   0  0  0  0  0  0  0  0  0  0  0  0
    2.1082   -1.0865    0.3458 C   0  0  0  0  0  0  0  0  0  0  0  0
    0.7015   -0.8474    0.0748 C   0  0  0  0  0  0  0  0  0  0  0  0
    4.4398   -0.2447    0.4497 C   0  0  0  0  0  0  0  0  0  0  0  0
   -1.9497   -0.3722   -0.3614 C   0  0  0  0  0  0  0  0  0  0  0  0
   -4.0454    1.8317    0.5918 C   0  0  0  0  0  0  0  0  0  0  0  0
   -5.6399   -0.0140   -0.0258 C   0  0  0  0  0  0  0  0  0  0  0  0
    0.1697   -1.0615   -1.1921 C   0  0  0  0  0  0  0  0  0  0  0  0
   -1.1805   -0.8220   -1.4225 C   0  0  0  0  0  0  0  0  0  0  0  0
   -0.1517   -0.3963    1.0689 C   0  0  0  0  0  0  0  0  0  0  0  0
    1.5922    1.3722   -0.4819 H   0  0  0  0  0  0  0  0  0  0  0  0
   -4.0337   -0.1790    1.3548 H   0  0  0  0  0  0  0  0  0  0  0  0
    4.4708    1.7323   -1.4667 H   0  0  0  0  0  0  0  0  0  0  0  0
    3.0111    2.5255   -2.0394 H   0  0  0  0  0  0  0  0  0  0  0  0
    3.2354    0.7950   -2.3286 H   0  0  0  0  0  0  0  0  0  0  0  0
    4.0999    2.4585    0.9027 H   0  0  0  0  0  0  0  0  0  0  0  0
    2.5981    2.0423    1.7505 H   0  0  0  0  0  0  0  0  0  0  0  0
    2.6108    3.3064    0.5130 H   0  0  0  0  0  0  0  0  0  0  0  0
    4.7800    0.4269    1.2407 H   0  0  0  0  0  0  0  0  0  0  0  0
    4.6157   -1.2673    0.7972 H   0  0  0  0  0  0  0  0  0  0  0  0
    5.0363   -0.1052   -0.4544 H   0  0  0  0  0  0  0  0  0  0  0  0
   -3.5634   -0.0151   -1.5763 H   0  0  0  0  0  0  0  0  0  0  0  0
   -4.2100    2.3737   -0.3465 H   0  0  0  0  0  0  0  0  0  0  0  0
   -4.7583    2.2130    1.3307 H   0  0  0  0  0  0  0  0  0  0  0  0
   -3.0395    2.0829    0.9432 H   0  0  0  0  0  0  0  0  0  0  0  0
   -5.7540   -1.0951   -0.1621 H   0  0  0  0  0  0  0  0  0  0  0  0
   -6.3639    0.3100    0.7291 H   0  0  0  0  0  0  0  0  0  0  0  0
   -5.9011    0.4672   -0.9752 H   0  0  0  0  0  0  0  0  0  0  0  0
    0.7985   -1.4137   -2.0054 H   0  0  0  0  0  0  0  0  0  0  0  0
   -1.6006   -0.9886   -2.4092 H   0  0  0  0  0  0  0  0  0  0  0  0
    0.2055   -0.2092    2.0770 H   0  0  0  0  0  0  0  0  0  0  0  0
  1  9  2  0  0  0  0
  2  5  1  0  0  0  0
  2  9  1  0  0  0  0
  2 11  1  0  0  0  0
  3  6  1  0  0  0  0
  3 12  1  0  0  0  0
  3 29  1  0  0  0  0
  4 12  2  0  0  0  0
  4 17  1  0  0  0  0
  5  7  1  0  0  0  0
  5  8  1  0  0  0  0
  5 18  1  0  0  0  0
  6 13  1  0  0  0  0
  6 14  1  0  0  0  0
  6 19  1  0  0  0  0
  7 20  1  0  0  0  0
  7 21  1  0  0  0  0
  7 22  1  0  0  0  0
  8 23  1  0  0  0  0
  8 24  1  0  0  0  0
  8 25  1  0  0  0  0
  9 10  1  0  0  0  0
 10 15  1  0  0  0  0
 10 17  2  0  0  0  0
 11 26  1  0  0  0  0
 11 27  1  0  0  0  0
 11 28  1  0  0  0  0
 12 16  1  0  0  0  0
 13 30  1  0  0  0  0
 13 31  1  0  0  0  0
 13 32  1  0  0  0  0
 14 33  1  0  0  0  0
 14 34  1  0  0  0  0
 14 35  1  0  0  0  0
 15 16  2  0  0  0  0
 15 36  1  0  0  0  0
 16 37  1  0  0  0  0
 17 38  1  0  0  0  0
M  END
>  <PUBCHEM_COMPOUND_CID>
159748527

>  <PUBCHEM_CONFORMER_RMSD>
0.6

>  <PUBCHEM_CONFORMER_DIVERSEORDER>
3
135
19
58
69
108
16
119
133
79
123
64
100
124
134
117
56
76
94
127
107
62
49
126
118
37
78
99
73
28
103
109
39
112
101
22
132
27
55
80
129
82
91
122
115
60
105
48
34
87
65
83
136
38
25
70
88
92
68
110
111
104
41
84
102
46
125
26
52
137
130
30
97
95
45
29
90
86
66
67
54
96
72
106
71
8
77
7
32
17
50
131
21
31
85
138
40
20
93
12
51
89
33
47
43
15
36
18
120
121
128
57
13
14
98
53
6
114
24
44
81
5
63
4
9
11
10
61
42
59
35
116
74
1
113
2
23
75

>  <PUBCHEM_MMFF94_PARTIAL_CHARGES>
17
1 -0.57
10 0.09
11 0.3
12 0.41
15 -0.15
16 -0.15
17 0.16
2 -0.66
29 0.4
3 -0.87
36 0.15
37 0.15
38 0.15
4 -0.62
5 0.3
6 0.37
9 0.54

>  <PUBCHEM_EFFECTIVE_ROTOR_COUNT>
5

>  <PUBCHEM_PHARMACOPHORE_FEATURES>
6
1 1 acceptor
1 3 donor
3 3 4 12 cation
3 5 7 8 hydrophobe
3 6 13 14 hydrophobe
6 4 10 12 15 16 17 rings

>  <PUBCHEM_HEAVY_ATOM_COUNT>
17

>  <PUBCHEM_ATOM_DEF_STEREO_COUNT>
0

>  <PUBCHEM_ATOM_UDEF_STEREO_COUNT>
0

>  <PUBCHEM_BOND_DEF_STEREO_COUNT>
0

>  <PUBCHEM_BOND_UDEF_STEREO_COUNT>
0

>  <PUBCHEM_ISOTOPIC_ATOM_COUNT>
0

>  <PUBCHEM_COMPONENT_COUNT>
1

>  <PUBCHEM_CACTVS_TAUTO_COUNT>
-1

>  <PUBCHEM_CONFORMER_ID>
098591AF00000003

>  <PUBCHEM_MMFF94_ENERGY>
53.5743

>  <PUBCHEM_FEATURE_SELFOVERLAP>
30.446

>  <PUBCHEM_SHAPE_FINGERPRINT>
10354089 29 18410293592591012170
10366900 7 17822018583494035579
10980938 120 18334009505989230180
11031198 65 18333734645515356438
11045977 3 17894917351651907091
11132069 177 16081093679907870187
12107183 9 17689432690212227787
12173636 292 18341887541420648055
12236239 1 18202560666301492730
12616999 72 17632581535006885695
12633257 1 16878215463491555280
13583140 156 18335990822048572163
13760787 19 18342735239142531951
14115302 16 17132112463789648446
14252887 29 15430039816222828690
14289901 80 18334577953838615147
14415576 193 18343023263674804359
14911166 2 15985099717411466147
15239154 128 18343018896020326361
15295992 7 18263360446861212720
15342168 16 17896043320035834900
17980427 23 16556744643551080152
1813 80 17911526398398245806
18186145 218 18187079529460121335
19026448 5 18411695466096466183
19050596 39 18409161138643424403
20233049 118 17489863821756411600
20369508 70 12823301165323426142
20606313 2 18408603660678596928
20645476 183 17988919002604069686
20645477 70 18337106753046748195
21033648 29 17385709288860607941
21041028 32 18120642544911920786
21354914 88 9007067863449775345
21503847 285 18261116227348260820
21524375 3 18412261744106132071
21652331 79 18412543219621140225
22854114 111 18410570712639715648
22854114 59 17458344135119101283
23402539 116 18410566285203666927
23557571 272 15913334559296452640
23558518 356 17827633966299708090
23559900 14 17822014198533282890
25 1 18334575776326813722
3004659 81 8862942775516506753
3060560 45 17775289361147101588
3286 77 17605269584352507138
4047638 21 18260548917876498571
449060 50 17967254208610831279
449060 62 18334298686169002868
474 4 18114466755001307108
4990 188 14477241557228044711
57483677 85 17894915147864315447
58999712 98 18272931648104415848
59391676 29 8142090865960508592
633830 44 18337112358110224086
8272917 22 18337394837872346378
9981440 41 17337289228146875096
9999458 23 17530685424853715846

>  <PUBCHEM_SHAPE_MULTIPOLES>
329.04
9.64
1.89
1.22
8.54
0.69
0.36
3.59
-0.58
-1.49
-0.18
-0.51
0.03
-0.95

>  <PUBCHEM_SHAPE_SELFOVERLAP>
662.557

>  <PUBCHEM_SHAPE_VOLUME>
194.1

>  <PUBCHEM_COORDINATE_TYPE>
2
5
10

$$$$
