162271409
 OpenBabel01182520543D

 28 29  0  0  0  0  0  0  0  0999 V2000
    2.7128    2.0902   -0.0004 O   0  0  0  0  0  0  0  0  0  0  0  0
   -0.9624    0.4646    0.0002 N   0  0  0  0  0  0  0  0  0  0  0  0
   -0.0393   -1.7709   -0.0002 N   0  0  0  0  0  0  0  0  0  0  0  0
    0.4446    2.4089   -0.0003 N   0  0  0  0  0  0  0  0  0  0  0  0
   -2.2972   -0.1081    0.0005 C   0  0  0  0  0  0  0  0  0  0  0  0
   -2.4573   -0.9662    1.2573 C   0  0  0  0  0  0  0  0  0  0  0  0
   -3.3223    1.0294   -0.0002 C   0  0  0  0  0  0  0  0  0  0  0  0
   -2.4658   -0.9681   -1.2550 C   0  0  0  0  0  0  0  0  0  0  0  0
    0.1337   -0.4233    0.0000 C   0  0  0  0  0  0  0  0  0  0  0  0
   -0.7037    1.8116   -0.0001 C   0  0  0  0  0  0  0  0  0  0  0  0
    1.4187    0.1378   -0.0002 C   0  0  0  0  0  0  0  0  0  0  0  0
    1.5793    1.6203   -0.0004 C   0  0  0  0  0  0  0  0  0  0  0  0
    2.5372   -0.6976   -0.0003 C   0  0  0  0  0  0  0  0  0  0  0  0
    1.0631   -2.5551   -0.0004 C   0  0  0  0  0  0  0  0  0  0  0  0
    2.3586   -2.0733   -0.0005 C   0  0  0  0  0  0  0  0  0  0  0  0
   -1.9796   -1.9475    1.2169 H   0  0  0  0  0  0  0  0  0  0  0  0
   -2.0851   -0.4466    2.1486 H   0  0  0  0  0  0  0  0  0  0  0  0
   -3.5200   -1.1768    1.4331 H   0  0  0  0  0  0  0  0  0  0  0  0
   -3.2591    1.6548   -0.8987 H   0  0  0  0  0  0  0  0  0  0  0  0
   -3.2588    1.6559    0.8974 H   0  0  0  0  0  0  0  0  0  0  0  0
   -4.3390    0.6147    0.0005 H   0  0  0  0  0  0  0  0  0  0  0  0
   -2.1039   -0.4463   -2.1492 H   0  0  0  0  0  0  0  0  0  0  0  0
   -1.9813   -1.9461   -1.2191 H   0  0  0  0  0  0  0  0  0  0  0  0
   -3.5290   -1.1845   -1.4206 H   0  0  0  0  0  0  0  0  0  0  0  0
   -1.5672    2.4832   -0.0002 H   0  0  0  0  0  0  0  0  0  0  0  0
    3.5461   -0.2957   -0.0004 H   0  0  0  0  0  0  0  0  0  0  0  0
    0.8673   -3.6224   -0.0006 H   0  0  0  0  0  0  0  0  0  0  0  0
    3.2071   -2.7476   -0.0006 H   0  0  0  0  0  0  0  0  0  0  0  0
  1 12  2  0  0  0  0
  2  5  1  0  0  0  0
  2  9  1  0  0  0  0
  2 10  1  0  0  0  0
  3  9  1  0  0  0  0
  3 14  2  0  0  0  0
  4 10  2  0  0  0  0
  4 12  1  0  0  0  0
  5  6  1  0  0  0  0
  5  7  1  0  0  0  0
  5  8  1  0  0  0  0
  6 16  1  0  0  0  0
  6 17  1  0  0  0  0
  6 18  1  0  0  0  0
  7 19  1  0  0  0  0
  7 20  1  0  0  0  0
  7 21  1  0  0  0  0
  8 22  1  0  0  0  0
  8 23  1  0  0  0  0
  8 24  1  0  0  0  0
  9 11  2  0  0  0  0
 10 25  1  0  0  0  0
 11 12  1  0  0  0  0
 11 13  1  0  0  0  0
 13 15  2  0  0  0  0
 13 26  1  0  0  0  0
 14 15  1  0  0  0  0
 14 27  1  0  0  0  0
 15 28  1  0  0  0  0
M  END
>  <PUBCHEM_COMPOUND_CID>
162271409

>  <PUBCHEM_CONFORMER_RMSD>
0.4

>  <PUBCHEM_CONFORMER_DIVERSEORDER>
1

>  <PUBCHEM_MMFF94_PARTIAL_CHARGES>
16
1 -0.57
10 0.44
11 0.09
12 0.69
13 -0.15
14 0.16
15 -0.15
2 -0.52
25 0.06
26 0.15
27 0.15
28 0.15
3 -0.62
4 -0.66
5 0.37
9 0.41

>  <PUBCHEM_EFFECTIVE_ROTOR_COUNT>
1

>  <PUBCHEM_PHARMACOPHORE_FEATURES>
6
1 1 acceptor
1 3 acceptor
1 4 donor
4 5 6 7 8 hydrophobe
6 2 4 9 10 11 12 rings
6 3 9 11 13 14 15 rings

>  <PUBCHEM_HEAVY_ATOM_COUNT>
15

>  <PUBCHEM_ATOM_DEF_STEREO_COUNT>
0

>  <PUBCHEM_ATOM_UDEF_STEREO_COUNT>
0

>  <PUBCHEM_BOND_DEF_STEREO_COUNT>
0

>  <PUBCHEM_BOND_UDEF_STEREO_COUNT>
0

>  <PUBCHEM_ISOTOPIC_ATOM_COUNT>
0

>  <PUBCHEM_COMPONENT_COUNT>
1

>  <PUBCHEM_CACTVS_TAUTO_COUNT>
-1

>  <PUBCHEM_CONFORMER_ID>
09AC10B100000001

>  <PUBCHEM_MMFF94_ENERGY>
60.3188

>  <PUBCHEM_FEATURE_SELFOVERLAP>
30.475

>  <PUBCHEM_SHAPE_FINGERPRINT>
1 1 18265898140750917084
10967382 1 18410573968008602660
10980938 120 18411421734597455249
11471102 20 18337387145833481965
11471102 22 18263099836503232171
11680986 33 18408608054097675594
11987891 36 18408325505400298298
12138202 78 18410009892842367064
12423570 1 18197196097223718803
12524768 44 18334853922213304945
12696612 119 18340210691329646210
13380535 76 18194393627110996082
13583140 156 16592496487709287632
13897977 150 18408885152629448389
14115302 16 17606140402067552663
14178342 30 18269545199556468985
14614273 12 17682396945112254158
14648413 74 18335423447920055113
15219456 202 18261117400101036689
16945 1 18338797793091666050
17990270 104 18408321072994035915
193761 8 18194682562272346244
19591789 44 18121233223069028166
20510252 161 17334499796515678064
20645476 183 17535480541117735228
20645477 70 18412819197218891599
20871998 184 17479165371612600998
21040471 1 18050567644800314660
21160774 45 17471857381832014655
21501502 16 18411416220065110485
21524375 3 18119798368741725704
22721475 48 18265899046899183232
2334 1 18338799034331926848
23388829 49 18341317912650422466
23419403 2 16822417331198410032
23463225 33 18338797810266234497
23493267 7 17604148237300714080
23552423 10 18410291389209440317
23559900 14 15173325472135831550
257057 1 17976521828670141154
2748010 2 18337393837123471228
2897 32 18339360889116264524
3071541 12 18411422799754846716
3071541 158 18189054187903293196
33824 294 18192435392734060811
34934 24 18121771738415166058
528886 8 18339075007566541673
54173680 148 17257374037910185314
58734987 50 18340490053277399246
63268167 104 18342739658399726105
7364860 26 18412825763627599392
81228 2 17618506480427201466
8809292 202 18115315462098242435

>  <PUBCHEM_SHAPE_MULTIPOLES>
287.88
4.37
2.75
0.82
1.47
0.48
0
-0.4
0
-1.6
0
0.54
-0.27
0

>  <PUBCHEM_SHAPE_SELFOVERLAP>
619.16

>  <PUBCHEM_SHAPE_VOLUME>
155.8

>  <PUBCHEM_COORDINATE_TYPE>
2
5
10

$$$$
