162651847
 OpenBabel01182520543D

 23 23  0  0  0  0  0  0  0  0999 V2000
   -3.8273    1.0532   -0.1077 O   0  0  0  0  0  0  0  0  0  0  0  0
    0.3808    1.2640    0.0411 N   0  0  0  0  0  0  0  0  0  0  0  0
    2.3573    0.2620    0.7648 N   0  0  0  0  0  0  0  0  0  0  0  0
    2.7096   -0.5003   -1.4149 N   0  0  0  0  0  0  0  0  0  0  0  0
    4.5614   -0.0302   -0.1668 N   0  0  0  0  0  0  0  0  0  0  0  0
   -1.7043    0.0413    0.0726 C   0  0  0  0  0  0  0  0  0  0  0  0
   -1.0514   -1.0739    0.5859 C   0  0  0  0  0  0  0  0  0  0  0  0
    0.3172   -1.0216    0.8263 C   0  0  0  0  0  0  0  0  0  0  0  0
    0.9814    0.1601    0.5395 C   0  0  0  0  0  0  0  0  0  0  0  0
   -0.9500    1.1756   -0.1802 C   0  0  0  0  0  0  0  0  0  0  0  0
   -3.1327    0.0193   -0.1888 C   0  0  0  0  0  0  0  0  0  0  0  0
   -3.8260   -1.2850   -0.5717 C   0  0  0  0  0  0  0  0  0  0  0  0
    3.1840   -0.0645   -0.2002 C   0  0  0  0  0  0  0  0  0  0  0  0
   -1.5874   -1.9900    0.8168 H   0  0  0  0  0  0  0  0  0  0  0  0
    0.8382   -1.8837    1.2290 H   0  0  0  0  0  0  0  0  0  0  0  0
   -1.3971    2.0791   -0.5837 H   0  0  0  0  0  0  0  0  0  0  0  0
   -4.1718   -1.7931    0.3317 H   0  0  0  0  0  0  0  0  0  0  0  0
   -3.1495   -1.9326   -1.1360 H   0  0  0  0  0  0  0  0  0  0  0  0
   -4.6805   -1.0594   -1.2166 H   0  0  0  0  0  0  0  0  0  0  0  0
    1.7230   -0.5811   -1.6320 H   0  0  0  0  0  0  0  0  0  0  0  0
    3.3519   -0.7543   -2.1582 H   0  0  0  0  0  0  0  0  0  0  0  0
    5.0572    0.2709    0.6651 H   0  0  0  0  0  0  0  0  0  0  0  0
    5.1180   -0.3039   -0.9691 H   0  0  0  0  0  0  0  0  0  0  0  0
  1 11  2  0  0  0  0
  2  9  2  0  0  0  0
  2 10  1  0  0  0  0
  3  9  1  0  0  0  0
  3 13  2  0  0  0  0
  4 13  1  0  0  0  0
  4 20  1  0  0  0  0
  4 21  1  0  0  0  0
  5 13  1  0  0  0  0
  5 22  1  0  0  0  0
  5 23  1  0  0  0  0
  6  7  1  0  0  0  0
  6 10  2  0  0  0  0
  6 11  1  0  0  0  0
  7  8  2  0  0  0  0
  7 14  1  0  0  0  0
  8  9  1  0  0  0  0
  8 15  1  0  0  0  0
 10 16  1  0  0  0  0
 11 12  1  0  0  0  0
 12 17  1  0  0  0  0
 12 18  1  0  0  0  0
 12 19  1  0  0  0  0
M  END
>  <PUBCHEM_COMPOUND_CID>
162651847

>  <PUBCHEM_CONFORMER_RMSD>
0.6

>  <PUBCHEM_CONFORMER_DIVERSEORDER>
1
12
4
11
9
7
10
5
3
2
8
6

>  <PUBCHEM_MMFF94_PARTIAL_CHARGES>
20
1 -0.57
10 0.16
11 0.42
12 0.06
13 0.55
14 0.15
15 0.15
16 0.15
2 -0.62
20 0.4
21 0.4
22 0.4
23 0.4
3 -0.63
4 -0.85
5 -0.85
6 0.09
7 -0.15
8 -0.15
9 0.49

>  <PUBCHEM_EFFECTIVE_ROTOR_COUNT>
2

>  <PUBCHEM_PHARMACOPHORE_FEATURES>
5
1 1 acceptor
1 4 donor
1 5 donor
4 3 4 5 13 cation
6 2 6 7 8 9 10 rings

>  <PUBCHEM_HEAVY_ATOM_COUNT>
13

>  <PUBCHEM_ATOM_DEF_STEREO_COUNT>
0

>  <PUBCHEM_ATOM_UDEF_STEREO_COUNT>
0

>  <PUBCHEM_BOND_DEF_STEREO_COUNT>
0

>  <PUBCHEM_BOND_UDEF_STEREO_COUNT>
0

>  <PUBCHEM_ISOTOPIC_ATOM_COUNT>
0

>  <PUBCHEM_COMPONENT_COUNT>
1

>  <PUBCHEM_CACTVS_TAUTO_COUNT>
-1

>  <PUBCHEM_CONFORMER_ID>
09B1DEC700000001

>  <PUBCHEM_MMFF94_ENERGY>
44.7754

>  <PUBCHEM_FEATURE_SELFOVERLAP>
25.427

>  <PUBCHEM_SHAPE_FINGERPRINT>
10219947 1 11815896764440258400
11062470 55 18202002127252896152
11206711 2 18114453496753782189
11401426 45 18335977614549291864
11769659 78 16773791502500535535
12032990 46 18340487858765356451
12251169 10 9871457717033941834
13705890 14 17632576080160860722
14115302 16 17749396987647311302
14252887 29 14979966869455487996
14325111 11 18334572434504738331
14350558 41 17203334450064246759
14577589 140 17489584576131484647
14911166 2 18260263070765316855
14943859 89 15863789517176437080
14993402 34 17603301574528772111
16945 1 18040431101069470785
18186145 218 18334287678141650701
19026448 4 17346309419033828145
1986462 14 18413106169516052159
200 152 16702303434206033682
20201158 50 18273501160973294910
20279233 1 18202568380168114862
20281407 28 17846503620960299484
20344682 1 18202846556747144580
20645476 183 17240772817001429610
20645477 70 16629966512342818909
21119208 17 16950565480446058518
22485316 2 18059853948204355998
22926399 65 18187363212044598037
23380061 451 15123513596776295814
23402539 116 18408878525790245076
23402655 69 18261947458392132181
23559900 14 18335422387980835840
2748010 2 17827360191639436289
449060 23 18272086115140955647
449060 50 16988553671478444728
4990 188 18343021077394136399
57812782 119 17275385404156522765
7364860 26 18056193824161654697
81228 2 18196951993100998256

>  <PUBCHEM_SHAPE_MULTIPOLES>
241.74
7.1
1.22
0.9
1.72
0.04
-0.13
-0.53
-1.79
-0.83
0.03
0.36
-0.17
-0.03

>  <PUBCHEM_SHAPE_SELFOVERLAP>
502.21

>  <PUBCHEM_SHAPE_VOLUME>
135.8

>  <PUBCHEM_COORDINATE_TYPE>
2
5
10

$$$$
