163727827
 OpenBabel01182520543D

 38 39  0  0  1  0  0  0  0  0999 V2000
   -0.0985    1.2951    1.1530 O   0  0  0  0  0  0  0  0  0  0  0  0
    0.2867   -0.3950   -0.3965 N   0  0  0  0  0  0  0  0  0  0  0  0
   -3.8366   -0.4924   -1.1152 N   0  0  0  0  0  0  0  0  0  0  0  0
   -6.0438   -0.3944   -0.2243 N   0  0  0  0  0  0  0  0  0  0  0  0
    4.4765    0.1466    0.0883 C   0  0  1  0  0  0  0  0  0  0  0  0
    3.9412   -1.2828   -0.1138 C   0  0  0  0  0  0  0  0  0  0  0  0
    2.4278   -1.3949   -0.1013 C   0  0  0  0  0  0  0  0  0  0  0  0
    1.6562   -0.3262   -0.4086 C   0  0  0  0  0  0  0  0  0  0  0  0
    3.5778    1.1725   -0.5444 C   0  0  0  0  0  0  0  0  0  0  0  0
    2.2715    0.9534   -0.7849 C   0  0  0  0  0  0  0  0  0  0  0  0
    4.6626    0.4723    1.5726 C   0  0  0  0  0  0  0  0  0  0  0  0
    1.9295   -2.7735    0.2468 C   0  0  0  0  0  0  0  0  0  0  0  0
    1.4355    2.0220   -1.4355 C   0  0  0  0  0  0  0  0  0  0  0  0
   -0.5063    0.4245    0.3879 C   0  0  0  0  0  0  0  0  0  0  0  0
   -1.9714    0.2182    0.2487 C   0  0  0  0  0  0  0  0  0  0  0  0
   -2.8391    0.5152    1.2939 C   0  0  0  0  0  0  0  0  0  0  0  0
   -2.5152   -0.2791   -0.9246 C   0  0  0  0  0  0  0  0  0  0  0  0
   -4.2051    0.3098    1.1354 C   0  0  0  0  0  0  0  0  0  0  0  0
   -4.6493   -0.1912   -0.0776 C   0  0  0  0  0  0  0  0  0  0  0  0
    5.4604    0.2050   -0.3944 H   0  0  0  0  0  0  0  0  0  0  0  0
    4.3754   -1.9411    0.6494 H   0  0  0  0  0  0  0  0  0  0  0  0
    4.2907   -1.6647   -1.0828 H   0  0  0  0  0  0  0  0  0  0  0  0
    4.0271    2.1289   -0.8003 H   0  0  0  0  0  0  0  0  0  0  0  0
    3.7173    0.4106    2.1235 H   0  0  0  0  0  0  0  0  0  0  0  0
    5.0636    1.4835    1.7055 H   0  0  0  0  0  0  0  0  0  0  0  0
    5.3677   -0.2262    2.0359 H   0  0  0  0  0  0  0  0  0  0  0  0
    2.2954   -3.5006   -0.4855 H   0  0  0  0  0  0  0  0  0  0  0  0
    0.8395   -2.8491    0.2719 H   0  0  0  0  0  0  0  0  0  0  0  0
    2.2943   -3.0658    1.2372 H   0  0  0  0  0  0  0  0  0  0  0  0
    2.0651    2.7492   -1.9623 H   0  0  0  0  0  0  0  0  0  0  0  0
    0.8495    2.5853   -0.7057 H   0  0  0  0  0  0  0  0  0  0  0  0
    0.7627    1.5986   -2.1891 H   0  0  0  0  0  0  0  0  0  0  0  0
   -0.1261   -1.2688   -0.7121 H   0  0  0  0  0  0  0  0  0  0  0  0
   -2.4680    0.9033    2.2385 H   0  0  0  0  0  0  0  0  0  0  0  0
   -1.9087   -0.5168   -1.7927 H   0  0  0  0  0  0  0  0  0  0  0  0
   -4.8884    0.5396    1.9465 H   0  0  0  0  0  0  0  0  0  0  0  0
   -6.3632   -0.7662   -1.1102 H   0  0  0  0  0  0  0  0  0  0  0  0
   -6.5918   -0.5918    0.6041 H   0  0  0  0  0  0  0  0  0  0  0  0
  1 14  2  0  0  0  0
  2  8  1  0  0  0  0
  2 14  1  0  0  0  0
  2 33  1  0  0  0  0
  3 17  1  0  0  0  0
  3 19  2  0  0  0  0
  4 19  1  0  0  0  0
  4 37  1  0  0  0  0
  4 38  1  0  0  0  0
  5  6  1  0  0  0  0
  5  9  1  0  0  0  0
  5 11  1  0  0  0  0
  5 20  1  6  0  0  0
  6  7  1  0  0  0  0
  6 21  1  0  0  0  0
  6 22  1  0  0  0  0
  7  8  2  0  0  0  0
  7 12  1  0  0  0  0
  8 10  1  0  0  0  0
  9 10  2  0  0  0  0
  9 23  1  0  0  0  0
 10 13  1  0  0  0  0
 11 24  1  0  0  0  0
 11 25  1  0  0  0  0
 11 26  1  0  0  0  0
 12 27  1  0  0  0  0
 12 28  1  0  0  0  0
 12 29  1  0  0  0  0
 13 30  1  0  0  0  0
 13 31  1  0  0  0  0
 13 32  1  0  0  0  0
 14 15  1  0  0  0  0
 15 16  1  0  0  0  0
 15 17  2  0  0  0  0
 16 18  2  0  0  0  0
 16 34  1  0  0  0  0
 17 35  1  0  0  0  0
 18 19  1  0  0  0  0
 18 36  1  0  0  0  0
M  END
>  <PUBCHEM_COMPOUND_CID>
163727827

>  <PUBCHEM_CONFORMER_RMSD>
0.6

>  <PUBCHEM_CONFORMER_DIVERSEORDER>
6
2
7
5
3
11
12
1
4
9
10
8

>  <PUBCHEM_MMFF94_PARTIAL_CHARGES>
25
1 -0.57
10 -0.14
12 0.14
13 0.14
14 0.54
15 0.09
16 -0.15
17 0.16
18 -0.15
19 0.41
2 -0.54
23 0.15
3 -0.62
33 0.37
34 0.15
35 0.15
36 0.15
37 0.4
38 0.4
4 -0.9
5 0.14
6 0.14
7 -0.28
8 0.11
9 -0.29

>  <PUBCHEM_EFFECTIVE_ROTOR_COUNT>
3.4

>  <PUBCHEM_PHARMACOPHORE_FEATURES>
6
1 1 acceptor
1 2 donor
1 4 donor
3 3 4 19 cation
6 3 15 16 17 18 19 rings
6 5 6 7 8 9 10 rings

>  <PUBCHEM_HEAVY_ATOM_COUNT>
19

>  <PUBCHEM_ATOM_DEF_STEREO_COUNT>
0

>  <PUBCHEM_ATOM_UDEF_STEREO_COUNT>
1

>  <PUBCHEM_BOND_DEF_STEREO_COUNT>
0

>  <PUBCHEM_BOND_UDEF_STEREO_COUNT>
0

>  <PUBCHEM_ISOTOPIC_ATOM_COUNT>
0

>  <PUBCHEM_COMPONENT_COUNT>
1

>  <PUBCHEM_CACTVS_TAUTO_COUNT>
-1

>  <PUBCHEM_CONFORMER_ID>
09C249D300000006

>  <PUBCHEM_MMFF94_ENERGY>
67.102

>  <PUBCHEM_FEATURE_SELFOVERLAP>
30.446

>  <PUBCHEM_SHAPE_FINGERPRINT>
10090160 65 18409164411498181386
11471102 20 18260834808063615836
11578080 2 18056737884806957392
11796584 16 15357698570013095568
11987891 27 18202002131489867285
12011746 2 18114190722597343622
12107183 9 17479466638252136811
12236239 1 18131072619302349631
124424 183 16805038519334799044
12592029 89 17676200260491752770
12596602 18 17775564256239358003
12670546 56 18131070398672518729
12895837 130 14904485551386931376
13134695 92 17603581967517057836
13167823 11 18202004291847984535
13583140 156 16733270152536447280
13675066 3 18342183236833479065
13836976 161 18335987540292793742
14115302 16 18341617065607048127
14252887 29 18260831454121626922
14341114 328 17632570578803562168
14386348 63 17095245817414253703
14573314 32 15140954054542622928
14787075 74 17916859235797668256
14844126 61 15880105900297940106
14863182 85 18201728344652693342
15375358 24 17894916221722333611
15375462 189 18202565059984302427
15848702 151 18114185216058821725
17349148 13 18333730217161403376
17492 89 18127414445238253743
18186145 218 17022911142098567297
18222031 100 18260269625328528822
18522853 276 17704354377150259833
19050596 39 18131072610390733210
192875 21 18334581243546368576
200 152 18411136926894837005
20279233 1 17385730188039445163
20511986 3 18058997420251517025
20606313 2 18041001760605388940
20645477 70 18260547788374251471
21267235 1 18201729426662607182
22224240 67 18411692223854671802
23402539 116 16660357113099186319
23557571 272 15984557640709239145
23559900 14 14996291340131185692
26918003 58 18186804685912623649
2838139 119 15768910516360520792
300161 21 17988922250152778193
3060560 45 18261967314231618310
33824 294 18333731295509853058
3411729 13 16414333736630691880
34797466 226 14836126614609896280
351380 180 17022900177073317541
4072396 5 18186790384119901362
42630746 31 18409448089861641134
4340502 62 18409729590581950715
465052 167 17603585223365726178
474 4 18337676411896665672
4990 188 16732702748780983017
5104073 3 17988650644763345435
5374978 207 17489869327988900282
542803 24 14045744828893689987
57005193 9 18409446998639306490
573450 72 17703792479553477379
602551 16 15769483318135300071
7164475 11 18267591208264219597
7495541 125 17022910089657395921
9709674 26 18263092045438195355
9971528 1 18409733932978133148
9981440 41 17120838303286779777

>  <PUBCHEM_SHAPE_MULTIPOLES>
370.2
10.95
1.73
1.25
9.1
0.66
0.26
0.88
1.22
-2.03
-0.32
0.05
-0.37
-0.47

>  <PUBCHEM_SHAPE_SELFOVERLAP>
781.815

>  <PUBCHEM_SHAPE_VOLUME>
206.1

>  <PUBCHEM_COORDINATE_TYPE>
2
5
10

$$$$
