164071158
 OpenBabel01182520543D

 34 34  0  0  0  0  0  0  0  0999 V2000
    2.4293   -1.5683    0.3056 O   0  0  0  0  0  0  0  0  0  0  0  0
   -3.7639   -0.4937   -0.1176 N   0  0  0  0  0  0  0  0  0  0  0  0
   -1.7520    0.6285    0.3659 N   0  0  0  0  0  0  0  0  0  0  0  0
    2.4215    0.7345   -0.0209 N   0  0  0  0  0  0  0  0  0  0  0  0
   -4.5836    0.6409    0.2489 C   0  0  0  0  0  0  0  0  0  0  0  0
   -5.9930    0.1597    0.5673 C   0  0  0  0  0  0  0  0  0  0  0  0
   -4.5867    1.6545   -0.8881 C   0  0  0  0  0  0  0  0  0  0  0  0
   -2.3812   -0.4908   -0.0571 C   0  0  0  0  0  0  0  0  0  0  0  0
   -1.7270   -1.6511   -0.4386 C   0  0  0  0  0  0  0  0  0  0  0  0
    0.3451   -0.5314    0.0485 C   0  0  0  0  0  0  0  0  0  0  0  0
   -0.3377   -1.6636   -0.3823 C   0  0  0  0  0  0  0  0  0  0  0  0
   -0.4016    0.5790    0.4080 C   0  0  0  0  0  0  0  0  0  0  0  0
    1.7958   -0.5132    0.1160 C   0  0  0  0  0  0  0  0  0  0  0  0
    3.7703    0.9368    0.0363 C   0  0  0  0  0  0  0  0  0  0  0  0
    4.6634   -0.1899    0.2519 C   0  0  0  0  0  0  0  0  0  0  0  0
    4.2548    2.1801   -0.1090 C   0  0  0  0  0  0  0  0  0  0  0  0
    5.8466   -0.4121   -0.3348 C   0  0  0  0  0  0  0  0  0  0  0  0
   -4.1898    1.1164    1.1560 H   0  0  0  0  0  0  0  0  0  0  0  0
   -4.1926   -1.2012   -0.7064 H   0  0  0  0  0  0  0  0  0  0  0  0
   -6.4565   -0.3249   -0.2995 H   0  0  0  0  0  0  0  0  0  0  0  0
   -6.6320    0.9956    0.8704 H   0  0  0  0  0  0  0  0  0  0  0  0
   -5.9798   -0.5698    1.3846 H   0  0  0  0  0  0  0  0  0  0  0  0
   -4.9620    1.2093   -1.8167 H   0  0  0  0  0  0  0  0  0  0  0  0
   -3.5824    2.0397   -1.0918 H   0  0  0  0  0  0  0  0  0  0  0  0
   -5.2251    2.5098   -0.6424 H   0  0  0  0  0  0  0  0  0  0  0  0
   -2.2646   -2.5323   -0.7737 H   0  0  0  0  0  0  0  0  0  0  0  0
    0.1956   -2.5620   -0.6812 H   0  0  0  0  0  0  0  0  0  0  0  0
    0.0464    1.4934    0.7824 H   0  0  0  0  0  0  0  0  0  0  0  0
    1.8518    1.5563   -0.2025 H   0  0  0  0  0  0  0  0  0  0  0  0
    4.4138   -0.8555    1.0752 H   0  0  0  0  0  0  0  0  0  0  0  0
    3.5967    3.0290   -0.2714 H   0  0  0  0  0  0  0  0  0  0  0  0
    5.3175    2.3977   -0.0632 H   0  0  0  0  0  0  0  0  0  0  0  0
    6.4563   -1.2578   -0.0344 H   0  0  0  0  0  0  0  0  0  0  0  0
    6.2268    0.2271   -1.1243 H   0  0  0  0  0  0  0  0  0  0  0  0
  1 13  2  0  0  0  0
  2  5  1  0  0  0  0
  2  8  1  0  0  0  0
  2 19  1  0  0  0  0
  3  8  2  0  0  0  0
  3 12  1  0  0  0  0
  4 13  1  0  0  0  0
  4 14  1  0  0  0  0
  4 29  1  0  0  0  0
  5  6  1  0  0  0  0
  5  7  1  0  0  0  0
  5 18  1  0  0  0  0
  6 20  1  0  0  0  0
  6 21  1  0  0  0  0
  6 22  1  0  0  0  0
  7 23  1  0  0  0  0
  7 24  1  0  0  0  0
  7 25  1  0  0  0  0
  8  9  1  0  0  0  0
  9 11  2  0  0  0  0
  9 26  1  0  0  0  0
 10 11  1  0  0  0  0
 10 12  2  0  0  0  0
 10 13  1  0  0  0  0
 11 27  1  0  0  0  0
 12 28  1  0  0  0  0
 14 15  1  0  0  0  0
 14 16  2  0  0  0  0
 15 17  2  0  0  0  0
 15 30  1  0  0  0  0
 16 31  1  0  0  0  0
 16 32  1  0  0  0  0
 17 33  1  0  0  0  0
 17 34  1  0  0  0  0
M  END
>  <PUBCHEM_COMPOUND_CID>
164071158

>  <PUBCHEM_CONFORMER_RMSD>
0.8

>  <PUBCHEM_CONFORMER_DIVERSEORDER>
1
26
44
10
49
47
13
22
27
33
31
7
17
23
32
28
5
25
40
29
16
39
36
42
37
38
24
21
6
48
35
30
34
15
2
3
20
4
8
46
18
12
19
43
41
45
11
9
14

>  <PUBCHEM_MMFF94_PARTIAL_CHARGES>
25
1 -0.57
10 0.09
11 -0.15
12 0.16
13 0.54
14 0.11
15 -0.15
16 -0.3
17 -0.3
19 0.4
2 -0.87
26 0.15
27 0.15
28 0.15
29 0.37
3 -0.62
30 0.15
31 0.15
32 0.15
33 0.15
34 0.15
4 -0.54
5 0.37
8 0.41
9 -0.15

>  <PUBCHEM_EFFECTIVE_ROTOR_COUNT>
6

>  <PUBCHEM_PHARMACOPHORE_FEATURES>
7
1 1 acceptor
1 17 hydrophobe
1 2 donor
1 4 donor
3 2 3 8 cation
3 5 6 7 hydrophobe
6 3 8 9 10 11 12 rings

>  <PUBCHEM_HEAVY_ATOM_COUNT>
17

>  <PUBCHEM_ATOM_DEF_STEREO_COUNT>
0

>  <PUBCHEM_ATOM_UDEF_STEREO_COUNT>
0

>  <PUBCHEM_BOND_DEF_STEREO_COUNT>
0

>  <PUBCHEM_BOND_UDEF_STEREO_COUNT>
0

>  <PUBCHEM_ISOTOPIC_ATOM_COUNT>
0

>  <PUBCHEM_COMPONENT_COUNT>
1

>  <PUBCHEM_CACTVS_TAUTO_COUNT>
-1

>  <PUBCHEM_CONFORMER_ID>
09C786F600000001

>  <PUBCHEM_MMFF94_ENERGY>
57.5614

>  <PUBCHEM_FEATURE_SELFOVERLAP>
35.521

>  <PUBCHEM_SHAPE_FINGERPRINT>
10014705 185 18410288142593979165
10354089 29 18186522102924021226
11045977 3 17530973530922159465
11089746 13 18202556289698026536
11796584 16 12319733657475755253
12644460 14 18187926132176140802
13533116 47 16630248001085801926
13675066 3 17967818240869546387
14252887 29 12613028358314751600
14911166 2 17703788128471992715
15048467 5 18413952784927244217
15188451 53 15502670351331456393
15196674 1 18340486780707316626
15342168 16 17678183900318156244
17959699 21 18409446998750225680
18186145 218 18040987497356465854
19784866 9 18408037394899777082
200 152 16128657444206614914
20279233 1 15267348444142368174
20281389 69 18334011696312138472
20602899 9 15626225744950524487
20645477 56 18187362112786093599
20645477 70 18272373009997797894
20724930 69 18342739624103291159
20767249 13 11240001148618889494
20767249 213 18408886248294365317
21033648 29 18261659429158645237
21267235 1 18411990143675894818
212847 35 18342176700352417864
21304253 335 18261116257492660453
22079108 93 17458626756667457643
23218964 4 18410855443539207814
23272321 79 18410013282125282637
23402539 116 17846492642865713500
23402655 69 18343018926142957364
23559900 14 17988922319114984712
293599 30 18341895190757168019
29717793 49 17346323683058165516
335352 9 18412545418791666958
3545911 37 18410577279407360355
4214541 1 18411418440331217367
42788 4 18409449189146227145
4325135 7 18273492391219912599
4340502 62 17530686511216613883
449060 50 18408041814526391999
449060 62 18342458131788455867
474 4 17968098689539198300
4990 188 17489593376340190886
5104073 3 18337104691614804058
542803 24 17240203235649670812
59755656 215 18340774741449089774
59755656 520 17748825228521365691
633830 44 18115019827173395846
90127 26 18188215402539306496
9981440 41 17329986310543992712

>  <PUBCHEM_SHAPE_MULTIPOLES>
329.04
13.12
1.74
0.73
0.88
0.22
0.04
4.32
-0.03
-0.5
0.26
0.33
0.06
0.13

>  <PUBCHEM_SHAPE_SELFOVERLAP>
673.243

>  <PUBCHEM_SHAPE_VOLUME>
189.4

>  <PUBCHEM_COORDINATE_TYPE>
2
5
10

$$$$
