167138624
 OpenBabel01182520543D

 26 26  0  0  0  0  0  0  0  0999 V2000
   -1.7144    0.0693   -1.8061 O   0  0  0  0  0  0  0  0  0  0  0  0
   -2.2794    0.4716    0.4262 N   0  0  0  0  0  0  0  0  0  0  0  0
    1.8239   -1.5385    0.3225 N   0  0  0  0  0  0  0  0  0  0  0  0
   -0.3626   -2.4105    0.0417 N   0  0  0  0  0  0  0  0  0  0  0  0
    0.0160   -0.0589   -0.2991 C   0  0  0  0  0  0  0  0  0  0  0  0
   -1.4032    0.1623   -0.6193 C   0  0  0  0  0  0  0  0  0  0  0  0
    0.8938    1.0193   -0.3150 C   0  0  0  0  0  0  0  0  0  0  0  0
    2.2365    0.8196   -0.0133 C   0  0  0  0  0  0  0  0  0  0  0  0
    0.5262   -1.3061    0.0229 C   0  0  0  0  0  0  0  0  0  0  0  0
    2.6476   -0.4667    0.2964 C   0  0  0  0  0  0  0  0  0  0  0  0
   -3.6854    0.7113    0.1324 C   0  0  0  0  0  0  0  0  0  0  0  0
   -1.9006    0.5755    1.8338 C   0  0  0  0  0  0  0  0  0  0  0  0
    3.2013    1.9518   -0.0233 C   0  0  0  0  0  0  0  0  0  0  0  0
    0.5324    2.0150   -0.5610 H   0  0  0  0  0  0  0  0  0  0  0  0
    3.6821   -0.6859    0.5425 H   0  0  0  0  0  0  0  0  0  0  0  0
   -4.2886   -0.0198    0.6785 H   0  0  0  0  0  0  0  0  0  0  0  0
   -3.9468    1.7213    0.4613 H   0  0  0  0  0  0  0  0  0  0  0  0
   -3.8981    0.6197   -0.9357 H   0  0  0  0  0  0  0  0  0  0  0  0
   -2.1410    1.5835    2.1846 H   0  0  0  0  0  0  0  0  0  0  0  0
   -2.4819   -0.1551    2.4041 H   0  0  0  0  0  0  0  0  0  0  0  0
   -0.8405    0.3891    2.0067 H   0  0  0  0  0  0  0  0  0  0  0  0
    3.2004    2.4560    0.9482 H   0  0  0  0  0  0  0  0  0  0  0  0
    2.9425    2.6810   -0.7985 H   0  0  0  0  0  0  0  0  0  0  0  0
    4.2183    1.6050   -0.2353 H   0  0  0  0  0  0  0  0  0  0  0  0
   -1.3299   -2.2489    0.2934 H   0  0  0  0  0  0  0  0  0  0  0  0
    0.0396   -3.3098    0.2769 H   0  0  0  0  0  0  0  0  0  0  0  0
  1  6  2  0  0  0  0
  2  6  1  0  0  0  0
  2 11  1  0  0  0  0
  2 12  1  0  0  0  0
  3  9  1  0  0  0  0
  3 10  2  0  0  0  0
  4  9  1  0  0  0  0
  4 25  1  0  0  0  0
  4 26  1  0  0  0  0
  5  6  1  0  0  0  0
  5  7  1  0  0  0  0
  5  9  2  0  0  0  0
  7  8  2  0  0  0  0
  7 14  1  0  0  0  0
  8 10  1  0  0  0  0
  8 13  1  0  0  0  0
 10 15  1  0  0  0  0
 11 16  1  0  0  0  0
 11 17  1  0  0  0  0
 11 18  1  0  0  0  0
 12 19  1  0  0  0  0
 12 20  1  0  0  0  0
 12 21  1  0  0  0  0
 13 22  1  0  0  0  0
 13 23  1  0  0  0  0
 13 24  1  0  0  0  0
M  END
>  <PUBCHEM_COMPOUND_CID>
167138624

>  <PUBCHEM_CONFORMER_RMSD>
0.6

>  <PUBCHEM_CONFORMER_DIVERSEORDER>
2
4
1
3

>  <PUBCHEM_MMFF94_PARTIAL_CHARGES>
17
1 -0.57
10 0.16
11 0.3
12 0.3
13 0.14
14 0.15
15 0.15
2 -0.66
25 0.4
26 0.4
3 -0.62
4 -0.9
5 0.09
6 0.54
7 -0.15
8 -0.14
9 0.41

>  <PUBCHEM_EFFECTIVE_ROTOR_COUNT>
2

>  <PUBCHEM_PHARMACOPHORE_FEATURES>
5
1 1 acceptor
1 3 acceptor
1 4 cation
1 4 donor
6 3 5 7 8 9 10 rings

>  <PUBCHEM_HEAVY_ATOM_COUNT>
13

>  <PUBCHEM_ATOM_DEF_STEREO_COUNT>
0

>  <PUBCHEM_ATOM_UDEF_STEREO_COUNT>
0

>  <PUBCHEM_BOND_DEF_STEREO_COUNT>
0

>  <PUBCHEM_BOND_UDEF_STEREO_COUNT>
0

>  <PUBCHEM_ISOTOPIC_ATOM_COUNT>
0

>  <PUBCHEM_COMPONENT_COUNT>
1

>  <PUBCHEM_CACTVS_TAUTO_COUNT>
-1

>  <PUBCHEM_CONFORMER_ID>
09F6554000000002

>  <PUBCHEM_MMFF94_ENERGY>
46.479

>  <PUBCHEM_FEATURE_SELFOVERLAP>
25.372

>  <PUBCHEM_SHAPE_FINGERPRINT>
10219947 1 18333734585074636317
10857977 72 16660651760212930125
11471102 22 18187937118369784456
11725454 13 16376017933824841349
124424 183 17169812402471177138
12491281 212 17059794272363050920
12716758 59 15698283291416244325
13380535 21 18263370342523774086
13538477 17 17632283567482040565
13764800 53 18126851722859323544
14897335 6 18339637953472720468
15219456 202 17822284644049619733
15775835 57 18273496783974703153
16945 1 18335972070084200830
17357990 137 17345208713246979400
17841504 4 17971470689394935018
17844478 74 17676210134605546812
18175812 5 17748836202146280635
18186145 218 18341891887610994980
18380122 1 17748547030582907517
19837323 101 17631184154422305854
20510252 161 17620755420082960928
20645477 70 18264763273643567463
20653085 51 16844749619307498256
20715346 28 17603578617152032892
20871998 22 17693939588026925558
21040471 1 18336823203779486526
21061003 4 17973451996510920466
21501502 16 18264763427893183206
21524375 3 18272367598570509068
228727 97 17845641676995736877
23402539 116 15122928588002912417
23557571 272 15266195111751924210
2748010 2 18263641934775663310
29004967 10 18044095661481683431
430814 3 17989210313208485343
5084963 1 18201423740928543670
528886 8 18410848845883813840
63268167 104 18342450418074645464
77492 1 17917700276092974229
81228 2 17612876306757553298

>  <PUBCHEM_SHAPE_MULTIPOLES>
246.72
4.86
1.81
1.14
0.92
0.74
0.07
-2.41
0.49
-1.06
0.12
0.88
-0.17
-0.32

>  <PUBCHEM_SHAPE_SELFOVERLAP>
507.365

>  <PUBCHEM_SHAPE_VOLUME>
142.3

>  <PUBCHEM_COORDINATE_TYPE>
2
5
10

$$$$
