16793970
 OpenBabel01182520543D

 32 33  0  0  0  0  0  0  0  0999 V2000
   -0.7838   -2.5452    0.9171 O   0  0  0  0  0  0  0  0  0  0  0  0
    0.4847    0.5165    0.0662 N   0  0  0  0  0  0  0  0  0  0  0  0
    4.6568   -0.2003   -0.1040 N   0  0  0  0  0  0  0  0  0  0  0  0
   -1.4580    1.8485    0.1128 N   0  0  0  0  0  0  0  0  0  0  0  0
   -0.7480   -2.3708   -1.3553 N   0  0  0  0  0  0  0  0  0  0  0  0
    3.3741    0.4732    0.0908 C   0  0  0  0  0  0  0  0  0  0  0  0
    2.5865    0.5293   -1.2211 C   0  0  0  0  0  0  0  0  0  0  0  0
    2.5539   -0.2617    1.1533 C   0  0  0  0  0  0  0  0  0  0  0  0
    1.2204    1.1837   -1.0171 C   0  0  0  0  0  0  0  0  0  0  0  0
    1.1848    0.3911    1.3494 C   0  0  0  0  0  0  0  0  0  0  0  0
   -0.9121    0.6132    0.0509 C   0  0  0  0  0  0  0  0  0  0  0  0
   -1.6491   -0.5575   -0.0264 C   0  0  0  0  0  0  0  0  0  0  0  0
   -3.0357   -0.4540   -0.0412 C   0  0  0  0  0  0  0  0  0  0  0  0
   -1.0318   -1.8750   -0.0925 C   0  0  0  0  0  0  0  0  0  0  0  0
   -2.8085    1.9096    0.0962 C   0  0  0  0  0  0  0  0  0  0  0  0
   -3.6342    0.7995    0.0210 C   0  0  0  0  0  0  0  0  0  0  0  0
    3.5718    1.4965    0.4339 H   0  0  0  0  0  0  0  0  0  0  0  0
    2.4424   -0.4864   -1.6138 H   0  0  0  0  0  0  0  0  0  0  0  0
    3.1465    1.0891   -1.9799 H   0  0  0  0  0  0  0  0  0  0  0  0
    3.0884   -0.2717    2.1110 H   0  0  0  0  0  0  0  0  0  0  0  0
    2.4102   -1.3095    0.8563 H   0  0  0  0  0  0  0  0  0  0  0  0
    1.3417    2.2477   -0.7786 H   0  0  0  0  0  0  0  0  0  0  0  0
    0.6597    1.1181   -1.9580 H   0  0  0  0  0  0  0  0  0  0  0  0
    0.6022   -0.2180    2.0508 H   0  0  0  0  0  0  0  0  0  0  0  0
    1.3002    1.3847    1.7997 H   0  0  0  0  0  0  0  0  0  0  0  0
    5.1853   -0.1909    0.7672 H   0  0  0  0  0  0  0  0  0  0  0  0
    5.2138    0.3139   -0.7852 H   0  0  0  0  0  0  0  0  0  0  0  0
   -3.6599   -1.3416   -0.1006 H   0  0  0  0  0  0  0  0  0  0  0  0
   -3.2258    2.9098    0.1468 H   0  0  0  0  0  0  0  0  0  0  0  0
   -4.7130    0.9044    0.0110 H   0  0  0  0  0  0  0  0  0  0  0  0
   -0.9479   -1.8448   -2.2003 H   0  0  0  0  0  0  0  0  0  0  0  0
   -0.3245   -3.2851   -1.4738 H   0  0  0  0  0  0  0  0  0  0  0  0
  1 14  2  0  0  0  0
  2  9  1  0  0  0  0
  2 10  1  0  0  0  0
  2 11  1  0  0  0  0
  3  6  1  0  0  0  0
  3 26  1  0  0  0  0
  3 27  1  0  0  0  0
  4 11  1  0  0  0  0
  4 15  2  0  0  0  0
  5 14  1  0  0  0  0
  5 31  1  0  0  0  0
  5 32  1  0  0  0  0
  6  7  1  0  0  0  0
  6  8  1  0  0  0  0
  6 17  1  0  0  0  0
  7  9  1  0  0  0  0
  7 18  1  0  0  0  0
  7 19  1  0  0  0  0
  8 10  1  0  0  0  0
  8 20  1  0  0  0  0
  8 21  1  0  0  0  0
  9 22  1  0  0  0  0
  9 23  1  0  0  0  0
 10 24  1  0  0  0  0
 10 25  1  0  0  0  0
 11 12  2  0  0  0  0
 12 13  1  0  0  0  0
 12 14  1  0  0  0  0
 13 16  2  0  0  0  0
 13 28  1  0  0  0  0
 15 16  1  0  0  0  0
 15 29  1  0  0  0  0
 16 30  1  0  0  0  0
M  END
>  <PUBCHEM_COMPOUND_CID>
16793970

>  <PUBCHEM_CONFORMER_RMSD>
0.6

>  <PUBCHEM_CONFORMER_DIVERSEORDER>
1
8
12
4
11
18
16
10
6
5
14
3
17
9
15
13
7
2

>  <PUBCHEM_MMFF94_PARTIAL_CHARGES>
21
1 -0.57
10 0.37
11 0.41
12 0.09
13 -0.15
14 0.54
15 0.16
16 -0.15
2 -0.84
26 0.36
27 0.36
28 0.15
29 0.15
3 -0.99
30 0.15
31 0.37
32 0.37
4 -0.62
5 -0.8
6 0.27
9 0.37

>  <PUBCHEM_EFFECTIVE_ROTOR_COUNT>
3.2

>  <PUBCHEM_PHARMACOPHORE_FEATURES>
8
1 1 acceptor
1 2 cation
1 3 cation
1 3 donor
1 4 acceptor
1 5 donor
6 2 6 7 8 9 10 rings
6 4 11 12 13 15 16 rings

>  <PUBCHEM_HEAVY_ATOM_COUNT>
16

>  <PUBCHEM_ATOM_DEF_STEREO_COUNT>
0

>  <PUBCHEM_ATOM_UDEF_STEREO_COUNT>
0

>  <PUBCHEM_BOND_DEF_STEREO_COUNT>
0

>  <PUBCHEM_BOND_UDEF_STEREO_COUNT>
0

>  <PUBCHEM_ISOTOPIC_ATOM_COUNT>
0

>  <PUBCHEM_COMPONENT_COUNT>
1

>  <PUBCHEM_CACTVS_TAUTO_COUNT>
2

>  <PUBCHEM_CONFORMER_ID>
0100417200000001

>  <PUBCHEM_MMFF94_ENERGY>
52.2915

>  <PUBCHEM_FEATURE_SELFOVERLAP>
40.596

>  <PUBCHEM_SHAPE_FINGERPRINT>
12236239 1 17967251987785866944
124424 183 17489868228783337928
12500047 106 18343858914303281172
12592029 89 18189064113741344027
13538477 17 18114178704413660123
13581323 91 18411132550001422000
14115302 16 18410017658433492572
14993402 34 18187078447101943621
15207287 21 17418093221643786716
15279307 12 18040713679932118898
15279308 132 18202280303378167051
15309172 13 18336553733173227249
15342168 16 15359409530343965340
15375358 24 17560797745429236304
15669948 3 18339081617610679716
15775835 57 18341048527964478257
15852999 172 17989493995756130014
15906896 17 18336548321567428435
16752209 62 18337096943551680559
16945 1 18335428996964917401
18186145 218 17845943926486963745
19422 9 17822297911018779176
20279233 1 17489592277108118364
20510252 161 18272654536804143169
20524608 308 18131062775005471543
20645476 183 17967532389210534403
20871998 184 18270967971871475815
21524375 3 18410856525744235941
232386 152 18337110180598779980
23402539 116 18271799112362428877
23419403 2 13828127391396017087
23463225 33 18116145580354927435
23526113 38 17417537916948423230
23557571 272 18055639657859108008
23559900 14 18201717350132143824
23598291 2 17968103083047915724
23728640 28 18411696621121207922
2748010 2 18195256520469111895
43471831 8 18335978662848723755
465052 167 17971774395971968971
5706482 22 18411700963590996243
69090 78 18341891896148012932
6992083 37 18040440996452821716
7364860 26 17768810866932628607
74978 22 18261956370106477316
77492 1 17894910732659203000
81228 2 18052241080249540515
81539 233 18117555133388208365
90525 40 18333730195591556111
9709674 26 18343309179927664070

>  <PUBCHEM_SHAPE_MULTIPOLES>
303.48
6.12
2.11
1.11
3.55
1.16
0.02
-1.48
0.03
-1.6
0.19
0.62
0.18
-0.35

>  <PUBCHEM_SHAPE_SELFOVERLAP>
635.886

>  <PUBCHEM_SHAPE_VOLUME>
169.8

>  <PUBCHEM_COORDINATE_TYPE>
2
5
10

$$$$
