168968870
 OpenBabel01182520543D

 22 23  0  0  0  0  0  0  0  0999 V2000
   -2.4128   -2.0966    0.0009 O   0  0  0  0  0  0  0  0  0  0  0  0
   -3.0243    0.1283    0.0002 N   0  0  0  0  0  0  0  0  0  0  0  0
    1.6588   -1.1038   -0.0006 N   0  0  0  0  0  0  0  0  0  0  0  0
    3.3115    0.6120    0.0002 N   0  0  0  0  0  0  0  0  0  0  0  0
   -0.3446    0.8615   -0.0004 C   0  0  0  0  0  0  0  0  0  0  0  0
   -0.6765   -0.4983   -0.0006 C   0  0  0  0  0  0  0  0  0  0  0  0
    0.9993    1.2285   -0.0005 C   0  0  0  0  0  0  0  0  0  0  0  0
    1.9497    0.2176   -0.0005 C   0  0  0  0  0  0  0  0  0  0  0  0
   -1.4086    1.8654    0.0003 C   0  0  0  0  0  0  0  0  0  0  0  0
   -2.1025   -0.9098   -0.0003 C   0  0  0  0  0  0  0  0  0  0  0  0
    0.3480   -1.4343   -0.0005 C   0  0  0  0  0  0  0  0  0  0  0  0
   -2.6822    1.4571    0.0006 C   0  0  0  0  0  0  0  0  0  0  0  0
    4.3843   -0.3276    0.0013 C   0  0  0  0  0  0  0  0  0  0  0  0
    1.2913    2.2748   -0.0010 H   0  0  0  0  0  0  0  0  0  0  0  0
   -1.1524    2.9183    0.0006 H   0  0  0  0  0  0  0  0  0  0  0  0
    0.1529   -2.5016   -0.0005 H   0  0  0  0  0  0  0  0  0  0  0  0
   -3.5109    2.1545    0.0012 H   0  0  0  0  0  0  0  0  0  0  0  0
   -4.0142   -0.0996    0.0007 H   0  0  0  0  0  0  0  0  0  0  0  0
    3.5128    1.5786    0.2324 H   0  0  0  0  0  0  0  0  0  0  0  0
    4.3531   -0.9668   -0.8871 H   0  0  0  0  0  0  0  0  0  0  0  0
    5.3429    0.2006   -0.0045 H   0  0  0  0  0  0  0  0  0  0  0  0
    4.3578   -0.9598    0.8948 H   0  0  0  0  0  0  0  0  0  0  0  0
  1 10  2  0  0  0  0
  2 10  1  0  0  0  0
  2 12  1  0  0  0  0
  2 18  1  0  0  0  0
  3  8  2  0  0  0  0
  3 11  1  0  0  0  0
  4  8  1  0  0  0  0
  4 13  1  0  0  0  0
  4 19  1  0  0  0  0
  5  6  1  0  0  0  0
  5  7  2  0  0  0  0
  5  9  1  0  0  0  0
  6 10  1  0  0  0  0
  6 11  2  0  0  0  0
  7  8  1  0  0  0  0
  7 14  1  0  0  0  0
  9 12  2  0  0  0  0
  9 15  1  0  0  0  0
 11 16  1  0  0  0  0
 12 17  1  0  0  0  0
 13 20  1  0  0  0  0
 13 21  1  0  0  0  0
 13 22  1  0  0  0  0
M  END
>  <PUBCHEM_COMPOUND_CID>
168968870

>  <PUBCHEM_CONFORMER_RMSD>
0.4

>  <PUBCHEM_CONFORMER_DIVERSEORDER>
1
2

>  <PUBCHEM_MMFF94_PARTIAL_CHARGES>
19
1 -0.57
10 0.54
11 0.16
12 -0.04
13 0.37
14 0.15
15 0.15
16 0.15
17 0.15
18 0.37
19 0.4
2 -0.54
3 -0.62
4 -0.87
5 0.03
6 0.09
7 -0.15
8 0.41
9 -0.18

>  <PUBCHEM_EFFECTIVE_ROTOR_COUNT>
1

>  <PUBCHEM_PHARMACOPHORE_FEATURES>
6
1 1 acceptor
1 2 donor
1 4 donor
3 3 4 8 cation
6 2 5 6 9 10 12 rings
6 3 5 6 7 8 11 rings

>  <PUBCHEM_HEAVY_ATOM_COUNT>
13

>  <PUBCHEM_ATOM_DEF_STEREO_COUNT>
0

>  <PUBCHEM_ATOM_UDEF_STEREO_COUNT>
0

>  <PUBCHEM_BOND_DEF_STEREO_COUNT>
0

>  <PUBCHEM_BOND_UDEF_STEREO_COUNT>
0

>  <PUBCHEM_ISOTOPIC_ATOM_COUNT>
0

>  <PUBCHEM_COMPONENT_COUNT>
1

>  <PUBCHEM_CACTVS_TAUTO_COUNT>
-1

>  <PUBCHEM_CONFORMER_ID>
0A1242A600000001

>  <PUBCHEM_MMFF94_ENERGY>
42.5489

>  <PUBCHEM_FEATURE_SELFOVERLAP>
30.472

>  <PUBCHEM_SHAPE_FINGERPRINT>
10608611 8 18413385445348512720
108231 29 18199468933834835648
10857977 72 18340757251692998104
10967382 1 18338517426216478791
11132069 177 18410851062429985856
11206711 2 18409729594618111125
12032990 46 18338520870901926794
12138202 97 18261662676158650413
12897270 3 18411699897948470421
13024252 1 15502095241719009745
13380535 21 18340496551520687598
13380535 76 18340202986216359031
14325111 11 18410856568683385312
14577589 140 17917991689318137390
14614273 12 18188203204594841613
14897335 6 18337948978773600869
15219456 202 18130514028730392350
15536298 74 18270116795616868174
16945 1 18410575067699610981
18186145 218 18060427923713476448
193761 8 17978229353032104487
20510252 161 18271527588924916576
20645476 183 17823438139554096374
20645477 56 18338802212618736629
20645477 70 18195240015020797063
20828058 34 18409450254240120309
20871998 184 18201724002303522303
21040471 1 18266741290191754597
21501502 16 18338511928706085578
221490 88 17255676924939655951
22802520 49 17986130529462502838
23380061 330 18412541041803241094
23402539 116 18271799143022909143
23402655 69 18197483053381026917
23463225 33 18334574612337980850
23552423 10 18188491392615978581
23559900 14 18271804585025989192
2748010 2 18050843613707891301
305870 269 17896033243789331146
3312278 4 18410856563966457491
43471831 8 18334008368002855682
5104073 3 18411417328398652480
528886 8 18411131429141421961
53812653 166 18343016675305891712
54173680 148 18264772249344780026
6333449 129 18412824672721659013
7364860 26 18125159325462139390
8809292 202 18334579087261601235

>  <PUBCHEM_SHAPE_MULTIPOLES>
246.72
5.58
1.88
0.59
4.84
0.22
0
-0.02
0
-1.27
0
0
-0.02
0

>  <PUBCHEM_SHAPE_SELFOVERLAP>
533.721

>  <PUBCHEM_SHAPE_VOLUME>
134

>  <PUBCHEM_COORDINATE_TYPE>
2
5
10

$$$$
