169148623
 OpenBabel01182520543D

 16 17  0  0  0  0  0  0  0  0999 V2000
    3.9066    1.1872   -0.0003 I   0  0  0  0  0  0  0  0  0  0  0  0
    0.3669   -2.7269    0.0003 O   0  0  0  0  0  0  0  0  0  0  0  0
    1.7956   -0.9105    0.0002 N   0  0  0  0  0  0  0  0  0  0  0  0
    0.9979    1.3163   -0.0001 N   0  0  0  0  0  0  0  0  0  0  0  0
   -1.2970    1.7337    0.0003 N   0  0  0  0  0  0  0  0  0  0  0  0
   -0.5789   -0.5643   -0.0001 C   0  0  0  0  0  0  0  0  0  0  0  0
   -0.3131    0.8046    0.0001 C   0  0  0  0  0  0  0  0  0  0  0  0
    0.5501   -1.5157    0.0001 C   0  0  0  0  0  0  0  0  0  0  0  0
   -1.9008   -1.0019   -0.0005 C   0  0  0  0  0  0  0  0  0  0  0  0
    1.9669    0.4584    0.0000 C   0  0  0  0  0  0  0  0  0  0  0  0
   -2.9223   -0.0607   -0.0002 C   0  0  0  0  0  0  0  0  0  0  0  0
   -2.5719    1.2799    0.0003 C   0  0  0  0  0  0  0  0  0  0  0  0
   -2.1484   -2.0591   -0.0009 H   0  0  0  0  0  0  0  0  0  0  0  0
    2.6210   -1.5023    0.0004 H   0  0  0  0  0  0  0  0  0  0  0  0
   -3.9625   -0.3660   -0.0003 H   0  0  0  0  0  0  0  0  0  0  0  0
   -3.3346    2.0519    0.0006 H   0  0  0  0  0  0  0  0  0  0  0  0
  1 10  1  0  0  0  0
  2  8  2  0  0  0  0
  3  8  1  0  0  0  0
  3 10  1  0  0  0  0
  3 14  1  0  0  0  0
  4  7  1  0  0  0  0
  4 10  2  0  0  0  0
  5  7  1  0  0  0  0
  5 12  2  0  0  0  0
  6  7  2  0  0  0  0
  6  8  1  0  0  0  0
  6  9  1  0  0  0  0
  9 11  2  0  0  0  0
  9 13  1  0  0  0  0
 11 12  1  0  0  0  0
 11 15  1  0  0  0  0
 12 16  1  0  0  0  0
M  END
>  <PUBCHEM_COMPOUND_CID>
169148623

>  <PUBCHEM_CONFORMER_RMSD>
0.4

>  <PUBCHEM_CONFORMER_DIVERSEORDER>
1

>  <PUBCHEM_MMFF94_PARTIAL_CHARGES>
16
1 -0.11
10 0.62
11 -0.15
12 0.16
13 0.15
14 0.37
15 0.15
16 0.15
2 -0.57
3 -0.49
4 -0.63
5 -0.62
6 0.09
7 0.49
8 0.54
9 -0.15

>  <PUBCHEM_EFFECTIVE_ROTOR_COUNT>
0

>  <PUBCHEM_PHARMACOPHORE_FEATURES>
6
1 1 hydrophobe
1 2 acceptor
1 3 donor
1 5 acceptor
6 3 4 6 7 8 10 rings
6 5 6 7 9 11 12 rings

>  <PUBCHEM_HEAVY_ATOM_COUNT>
12

>  <PUBCHEM_ATOM_DEF_STEREO_COUNT>
0

>  <PUBCHEM_ATOM_UDEF_STEREO_COUNT>
0

>  <PUBCHEM_BOND_DEF_STEREO_COUNT>
0

>  <PUBCHEM_BOND_UDEF_STEREO_COUNT>
0

>  <PUBCHEM_ISOTOPIC_ATOM_COUNT>
0

>  <PUBCHEM_COMPONENT_COUNT>
1

>  <PUBCHEM_CACTVS_TAUTO_COUNT>
-1

>  <PUBCHEM_CONFORMER_ID>
0A1500CF00000001

>  <PUBCHEM_MMFF94_ENERGY>
26.9612

>  <PUBCHEM_FEATURE_SELFOVERLAP>
30.482

>  <PUBCHEM_SHAPE_FINGERPRINT>
10967382 1 18410575084663091910
12423570 1 17976238171802207889
12524768 44 18120657924836399231
12897270 3 18410575037640023813
13380535 76 18408601457017430730
14325111 11 18410573981162568868
14614273 12 18260822666281065861
14648413 74 18049444734100721169
16945 1 18122344571199020737
17990270 104 18050566240272103939
18185500 45 18123189009087972587
193761 8 17978228262057780708
19973954 147 18122908629464994531
20510252 161 18272092750770911424
20645476 183 17751095784899869910
20645477 56 18339082722013886656
20645477 70 18267578006373106335
20871998 184 17983865763401091590
21040471 1 18338516451380273862
21501502 16 18267299837903878881
21524375 3 18410848876307371874
23402539 116 18126557049263794695
23402655 69 18268977731899027533
23463225 33 18262512594462665162
23552423 10 18192154789266101559
23559900 14 18271813488652105612
241688 4 16826152135842700210
2748010 2 18410015424702176718
305870 269 18334571309307800202
43471831 8 18335698338807145378
528886 8 18410849988513926161
53812653 166 18342737433596234376
54173680 148 17976822317683479034
6333449 129 18340485689791106056
7364860 26 18197497312044500278
81228 2 17763170745659533906

>  <PUBCHEM_SHAPE_MULTIPOLES>
238.08
5.12
2.13
0.62
3.83
1
0
-2.24
0
-0.32
0
0.11
-0.03
0

>  <PUBCHEM_SHAPE_SELFOVERLAP>
496.375

>  <PUBCHEM_SHAPE_VOLUME>
138.9

>  <PUBCHEM_COORDINATE_TYPE>
2
5
10

$$$$
