169838282
 OpenBabel01182520543D

 23 23  0  0  0  0  0  0  0  0999 V2000
   -2.8608   -1.7576   -0.1353 O   0  0  0  0  0  0  0  0  0  0  0  0
   -0.0082    2.0567    0.1068 N   0  0  0  0  0  0  0  0  0  0  0  0
    2.3551    1.8703    0.1108 N   0  0  0  0  0  0  0  0  0  0  0  0
    3.3388   -0.5371   -0.5639 N   0  0  0  0  0  0  0  0  0  0  0  0
   -3.7988    0.3312   -0.0102 N   0  0  0  0  0  0  0  0  0  0  0  0
    1.0205   -0.1282   -0.0082 C   0  0  0  0  0  0  0  0  0  0  0  0
   -0.2348   -0.7251   -0.0491 C   0  0  0  0  0  0  0  0  0  0  0  0
   -1.3768    0.0672   -0.0121 C   0  0  0  0  0  0  0  0  0  0  0  0
    1.0791    1.2540    0.0690 C   0  0  0  0  0  0  0  0  0  0  0  0
    2.2111   -0.9661   -0.0497 C   0  0  0  0  0  0  0  0  0  0  0  0
   -1.2109    1.4406    0.0653 C   0  0  0  0  0  0  0  0  0  0  0  0
    2.1876   -2.3797    0.5275 C   0  0  0  0  0  0  0  0  0  0  0  0
   -2.7019   -0.5261   -0.0508 C   0  0  0  0  0  0  0  0  0  0  0  0
   -0.3311   -1.8048   -0.1274 H   0  0  0  0  0  0  0  0  0  0  0  0
   -2.0286    2.1494    0.0997 H   0  0  0  0  0  0  0  0  0  0  0  0
    1.9833   -3.0910   -0.2776 H   0  0  0  0  0  0  0  0  0  0  0  0
    1.4284   -2.4767    1.3079 H   0  0  0  0  0  0  0  0  0  0  0  0
    3.1582   -2.6160    0.9741 H   0  0  0  0  0  0  0  0  0  0  0  0
    3.1171    1.3747    0.5567 H   0  0  0  0  0  0  0  0  0  0  0  0
    2.3645    2.8821    0.1598 H   0  0  0  0  0  0  0  0  0  0  0  0
    4.0588   -1.2646   -0.5012 H   0  0  0  0  0  0  0  0  0  0  0  0
   -3.7553    1.3404    0.0525 H   0  0  0  0  0  0  0  0  0  0  0  0
   -4.7365   -0.0565   -0.0430 H   0  0  0  0  0  0  0  0  0  0  0  0
  1 13  2  0  0  0  0
  2  9  1  0  0  0  0
  2 11  2  0  0  0  0
  3  9  1  0  0  0  0
  3 19  1  0  0  0  0
  3 20  1  0  0  0  0
  4 10  2  0  0  0  0
  4 21  1  0  0  0  0
  5 13  1  0  0  0  0
  5 22  1  0  0  0  0
  5 23  1  0  0  0  0
  6  7  1  0  0  0  0
  6  9  2  0  0  0  0
  6 10  1  0  0  0  0
  7  8  2  0  0  0  0
  7 14  1  0  0  0  0
  8 11  1  0  0  0  0
  8 13  1  0  0  0  0
 10 12  1  0  0  0  0
 11 15  1  0  0  0  0
 12 16  1  0  0  0  0
 12 17  1  0  0  0  0
 12 18  1  0  0  0  0
M  END
>  <PUBCHEM_COMPOUND_CID>
169838282

>  <PUBCHEM_CONFORMER_RMSD>
0.6

>  <PUBCHEM_CONFORMER_DIVERSEORDER>
1
4
5
8
2
3
6
7

>  <PUBCHEM_MMFF94_PARTIAL_CHARGES>
20
1 -0.57
10 0.3
11 0.16
12 0.06
13 0.54
14 0.15
15 0.15
19 0.4
2 -0.62
20 0.4
21 0.4
22 0.37
23 0.37
3 -0.9
4 -0.85
5 -0.8
6 0.09
7 -0.15
8 0.09
9 0.41

>  <PUBCHEM_EFFECTIVE_ROTOR_COUNT>
2

>  <PUBCHEM_PHARMACOPHORE_FEATURES>
8
1 1 acceptor
1 2 acceptor
1 3 cation
1 3 donor
1 4 acceptor
1 4 donor
1 5 donor
6 2 6 7 8 9 11 rings

>  <PUBCHEM_HEAVY_ATOM_COUNT>
13

>  <PUBCHEM_ATOM_DEF_STEREO_COUNT>
0

>  <PUBCHEM_ATOM_UDEF_STEREO_COUNT>
0

>  <PUBCHEM_BOND_DEF_STEREO_COUNT>
0

>  <PUBCHEM_BOND_UDEF_STEREO_COUNT>
0

>  <PUBCHEM_ISOTOPIC_ATOM_COUNT>
0

>  <PUBCHEM_COMPONENT_COUNT>
1

>  <PUBCHEM_CACTVS_TAUTO_COUNT>
-1

>  <PUBCHEM_CONFORMER_ID>
0A1F86CA00000001

>  <PUBCHEM_MMFF94_ENERGY>
51.6506

>  <PUBCHEM_FEATURE_SELFOVERLAP>
40.604

>  <PUBCHEM_SHAPE_FINGERPRINT>
10130415 120 18341894061170239345
10857977 72 18269822156264351434
10967382 1 18410855468755071643
10980938 120 18339923839022102505
11471102 20 18410570716966357565
11769659 78 18411976962146872351
11806522 49 18411701028036533342
12032990 46 18412269457872540495
12553582 1 18338797814593337523
12897270 3 18408886247693024159
13380535 76 18049156971529389360
14128692 85 18413112753352861132
14178342 30 18124864905500874105
14252887 29 18059586775353047150
14325111 11 18339924938855516165
14576447 43 17698145585497051367
15219456 202 18337107972869571033
15375462 189 18334300824989051843
15442244 35 18340770343233617425
15536298 74 18272653484552654656
161256 15 18411134744961987708
16945 1 18338231566099387880
17990270 104 18265330780003115921
18186145 218 18040428915068208599
193761 8 18338795594179654544
20201158 50 18407757049283024675
20281407 28 18410858737230536699
20645477 70 18342454885310456951
20871998 184 17913196569017932174
20871998 22 18200037226959895966
21501502 16 18412267207468160281
21501925 9 18340474655692977763
21650355 55 17687441491881803722
23402539 116 17774997952612986125
23463225 33 18412265008497372959
23552423 10 18335144193388766748
23559900 14 17765142883822514018
2748010 2 18048887586832888802
3312278 4 18408890628633726971
34934 24 18411972551072963095
449060 23 18202293471953820038
63268167 104 18341336698885023553
7364860 26 18271524303185367880
74978 22 18411980265308967335
81228 2 18052544265858755472
8809292 202 18261397766696973907

>  <PUBCHEM_SHAPE_MULTIPOLES>
241.74
5.02
2.23
0.63
1.88
0.08
-0.01
-1.75
0.3
-0.89
-0.25
-0.13
-0.06
-0.19

>  <PUBCHEM_SHAPE_SELFOVERLAP>
507.572

>  <PUBCHEM_SHAPE_VOLUME>
135.5

>  <PUBCHEM_COORDINATE_TYPE>
2
5
10

$$$$
