170052213
 OpenBabel01182520543D

 35 35  0  0  0  0  0  0  0  0999 V2000
    2.8329   -1.7301    1.0089 O   0  0  0  0  0  0  0  0  0  0  0  0
   -3.0545   -0.3760   -0.5033 N   0  0  0  0  0  0  0  0  0  0  0  0
    3.2706    0.2555   -0.1444 N   0  0  0  0  0  0  0  0  0  0  0  0
   -1.1739    0.0992    0.8300 N   0  0  0  0  0  0  0  0  0  0  0  0
   -3.9677    0.2946    0.3965 C   0  0  0  0  0  0  0  0  0  0  0  0
   -1.6911   -0.4668   -0.2834 C   0  0  0  0  0  0  0  0  0  0  0  0
   -3.8838    1.7998    0.1777 C   0  0  0  0  0  0  0  0  0  0  0  0
   -5.3796   -0.2232    0.1564 C   0  0  0  0  0  0  0  0  0  0  0  0
    1.0011   -0.6724    0.1102 C   0  0  0  0  0  0  0  0  0  0  0  0
    2.8052    1.4037   -0.9193 C   0  0  0  0  0  0  0  0  0  0  0  0
    2.4304   -0.7585    0.3538 C   0  0  0  0  0  0  0  0  0  0  0  0
   -0.9389   -1.1411   -1.2318 C   0  0  0  0  0  0  0  0  0  0  0  0
    0.4323   -1.2411   -1.0241 C   0  0  0  0  0  0  0  0  0  0  0  0
    0.1623   -0.0189    0.9985 C   0  0  0  0  0  0  0  0  0  0  0  0
    4.7049    0.1999    0.1008 C   0  0  0  0  0  0  0  0  0  0  0  0
    2.4498    2.5753   -0.0265 C   0  0  0  0  0  0  0  0  0  0  0  0
   -3.7104    0.0660    1.4383 H   0  0  0  0  0  0  0  0  0  0  0  0
   -3.3734   -0.5275   -1.4554 H   0  0  0  0  0  0  0  0  0  0  0  0
   -4.5886    2.3257    0.8305 H   0  0  0  0  0  0  0  0  0  0  0  0
   -2.8825    2.1864    0.3932 H   0  0  0  0  0  0  0  0  0  0  0  0
   -4.1218    2.0649   -0.8588 H   0  0  0  0  0  0  0  0  0  0  0  0
   -5.7105   -0.0245   -0.8693 H   0  0  0  0  0  0  0  0  0  0  0  0
   -5.4291   -1.3062    0.3145 H   0  0  0  0  0  0  0  0  0  0  0  0
   -6.0912    0.2512    0.8402 H   0  0  0  0  0  0  0  0  0  0  0  0
    3.5880    1.6907   -1.6308 H   0  0  0  0  0  0  0  0  0  0  0  0
    1.9297    1.1240   -1.5119 H   0  0  0  0  0  0  0  0  0  0  0  0
   -1.3878   -1.5843   -2.1149 H   0  0  0  0  0  0  0  0  0  0  0  0
    1.0481   -1.7636   -1.7512 H   0  0  0  0  0  0  0  0  0  0  0  0
    0.5460    0.4399    1.9048 H   0  0  0  0  0  0  0  0  0  0  0  0
    5.2248    0.1322   -0.8593 H   0  0  0  0  0  0  0  0  0  0  0  0
    5.0149    1.1088    0.6238 H   0  0  0  0  0  0  0  0  0  0  0  0
    4.9756   -0.6668    0.7091 H   0  0  0  0  0  0  0  0  0  0  0  0
    3.3210    2.9133    0.5442 H   0  0  0  0  0  0  0  0  0  0  0  0
    1.6655    2.3252    0.6914 H   0  0  0  0  0  0  0  0  0  0  0  0
    2.0975    3.4171   -0.6310 H   0  0  0  0  0  0  0  0  0  0  0  0
  1 11  2  0  0  0  0
  2  5  1  0  0  0  0
  2  6  1  0  0  0  0
  2 18  1  0  0  0  0
  3 10  1  0  0  0  0
  3 11  1  0  0  0  0
  3 15  1  0  0  0  0
  4  6  2  0  0  0  0
  4 14  1  0  0  0  0
  5  7  1  0  0  0  0
  5  8  1  0  0  0  0
  5 17  1  0  0  0  0
  6 12  1  0  0  0  0
  7 19  1  0  0  0  0
  7 20  1  0  0  0  0
  7 21  1  0  0  0  0
  8 22  1  0  0  0  0
  8 23  1  0  0  0  0
  8 24  1  0  0  0  0
  9 11  1  0  0  0  0
  9 13  1  0  0  0  0
  9 14  2  0  0  0  0
 10 16  1  0  0  0  0
 10 25  1  0  0  0  0
 10 26  1  0  0  0  0
 12 13  2  0  0  0  0
 12 27  1  0  0  0  0
 13 28  1  0  0  0  0
 14 29  1  0  0  0  0
 15 30  1  0  0  0  0
 15 31  1  0  0  0  0
 15 32  1  0  0  0  0
 16 33  1  0  0  0  0
 16 34  1  0  0  0  0
 16 35  1  0  0  0  0
M  END
>  <PUBCHEM_COMPOUND_CID>
170052213

>  <PUBCHEM_CONFORMER_RMSD>
0.6

>  <PUBCHEM_CONFORMER_DIVERSEORDER>
1
116
80
43
45
115
147
129
41
123
76
110
55
85
86
27
134
44
142
148
105
62
93
49
33
143
94
82
117
77
28
118
126
73
37
42
67
92
60
52
84
127
36
47
68
128
51
114
146
96
25
145
56
53
8
98
113
136
15
99
29
112
39
66
139
89
88
22
72
132
107
130
133
31
14
19
149
103
50
125
18
138
144
137
74
7
57
102
97
61
140
24
108
23
48
81
100
104
38
20
101
75
32
90
30
119
65
121
111
122
95
58
26
135
11
12
87
83
106
141
64
131
9
124
91
10
63
54
71
59
13
46
16
78
70
6
120
3
69
35
79
5
17
40
21
2
34
109
4

>  <PUBCHEM_MMFF94_PARTIAL_CHARGES>
17
1 -0.57
10 0.3
11 0.54
12 -0.15
13 -0.15
14 0.16
15 0.3
18 0.4
2 -0.87
27 0.15
28 0.15
29 0.15
3 -0.66
4 -0.62
5 0.37
6 0.41
9 0.09

>  <PUBCHEM_EFFECTIVE_ROTOR_COUNT>
5

>  <PUBCHEM_PHARMACOPHORE_FEATURES>
5
1 1 acceptor
1 2 donor
3 2 4 6 cation
3 5 7 8 hydrophobe
6 4 6 9 12 13 14 rings

>  <PUBCHEM_HEAVY_ATOM_COUNT>
16

>  <PUBCHEM_ATOM_DEF_STEREO_COUNT>
0

>  <PUBCHEM_ATOM_UDEF_STEREO_COUNT>
0

>  <PUBCHEM_BOND_DEF_STEREO_COUNT>
0

>  <PUBCHEM_BOND_UDEF_STEREO_COUNT>
0

>  <PUBCHEM_ISOTOPIC_ATOM_COUNT>
0

>  <PUBCHEM_COMPONENT_COUNT>
1

>  <PUBCHEM_CACTVS_TAUTO_COUNT>
-1

>  <PUBCHEM_CONFORMER_ID>
0A22CA7500000001

>  <PUBCHEM_MMFF94_ENERGY>
47.3322

>  <PUBCHEM_FEATURE_SELFOVERLAP>
25.371

>  <PUBCHEM_SHAPE_FINGERPRINT>
10354089 29 18335423465068119688
10366900 7 17530971275721391809
10980938 120 18335138704562915836
11031198 65 17967536791942312006
11045977 3 17894636989008468075
12107183 9 17686332075885110107
12236239 1 18343299258727101482
12251169 10 18334574646302268831
12633257 1 16660916794450841144
12670546 56 17968653818309395595
13538477 17 18202274844744168374
13583140 156 18187090567916241723
13675066 3 18059565854530405635
13760787 19 18411697703500374159
14115302 16 17632578288069430614
14252887 29 14129060283643761296
14289901 80 18260268581377351507
14415576 193 18342179955394042869
14911166 2 16702301260678463691
15342168 16 17605844848293593284
16945 1 18261375776838776198
17802600 8 18335417967373376508
18186145 218 18113334189310463263
19026448 5 18335415751534040691
20233049 118 17847057779237147856
20559304 39 18410853227251628666
20606313 2 18408324393299401500
20645476 183 18201154446579753486
20645477 70 18261108517676866547
21033648 29 17023451015324673981
21524375 3 18342176682660722303
21652331 79 18408886252479063173
22854114 59 16877662361929421531
22892500 29 18040156227499626928
231179 274 18410012108982143037
23402539 116 18335134307096718551
23558518 356 17609496386971580202
23559900 14 18334856086935377498
25 1 18187083992410871528
3060560 45 18272939314847724182
3286 77 17386279879328830898
4047638 21 18335424564484970851
449060 50 17603588542700270895
449060 62 18260834829717975844
474 4 17969224602004038284
4921388 177 14189278388504379501
4990 188 14764350435751069239
537710 114 17917994979516222081
58999712 98 18341894129789852916
8272917 22 18335986363487721410
9981440 41 17333639979087779176

>  <PUBCHEM_SHAPE_MULTIPOLES>
308.46
9.17
1.82
1.01
6.08
1.05
0.07
2.38
-0.72
-0.98
0.17
-0.19
-0.22
-0.76

>  <PUBCHEM_SHAPE_SELFOVERLAP>
620.525

>  <PUBCHEM_SHAPE_VOLUME>
181.6

>  <PUBCHEM_COORDINATE_TYPE>
2
5
10

$$$$
