170568765
 OpenBabel01182520543D

 24 25  0  0  0  0  0  0  0  0999 V2000
   -5.0372    0.0748    0.5679 F   0  0  0  0  0  0  0  0  0  0  0  0
    4.2841   -1.0678    0.0807 O   0  0  0  0  0  0  0  0  0  0  0  0
   -1.9600   -0.0084   -0.1551 N   0  0  0  0  0  0  0  0  0  0  0  0
    0.0832    1.1859   -0.0467 N   0  0  0  0  0  0  0  0  0  0  0  0
    4.2469    1.2247    0.1196 N   0  0  0  0  0  0  0  0  0  0  0  0
   -4.0032   -0.0241   -0.2965 C   0  0  0  0  0  0  0  0  0  0  0  0
   -2.9116    1.0476   -0.1679 C   0  0  0  0  0  0  0  0  0  0  0  0
   -2.9120   -1.0395    0.0706 C   0  0  0  0  0  0  0  0  0  0  0  0
   -0.5595   -0.0024   -0.1000 C   0  0  0  0  0  0  0  0  0  0  0  0
    0.0810   -1.2310   -0.1034 C   0  0  0  0  0  0  0  0  0  0  0  0
    1.4703   -1.2410   -0.0484 C   0  0  0  0  0  0  0  0  0  0  0  0
    2.1668   -0.0388    0.0083 C   0  0  0  0  0  0  0  0  0  0  0  0
    1.4333    1.1367    0.0064 C   0  0  0  0  0  0  0  0  0  0  0  0
    3.6179   -0.0167    0.0644 C   0  0  0  0  0  0  0  0  0  0  0  0
   -4.3544   -0.1417   -1.3299 H   0  0  0  0  0  0  0  0  0  0  0  0
   -2.8079    1.7182   -1.0242 H   0  0  0  0  0  0  0  0  0  0  0  0
   -2.9213    1.6132    0.7683 H   0  0  0  0  0  0  0  0  0  0  0  0
   -2.9241   -1.3799    1.1102 H   0  0  0  0  0  0  0  0  0  0  0  0
   -2.8243   -1.8862   -0.6144 H   0  0  0  0  0  0  0  0  0  0  0  0
   -0.4551   -2.1728   -0.1488 H   0  0  0  0  0  0  0  0  0  0  0  0
    1.9893   -2.1956   -0.0512 H   0  0  0  0  0  0  0  0  0  0  0  0
    1.8720    2.1255    0.0472 H   0  0  0  0  0  0  0  0  0  0  0  0
    3.7791    2.1222    0.1163 H   0  0  0  0  0  0  0  0  0  0  0  0
    5.2601    1.2692    0.1664 H   0  0  0  0  0  0  0  0  0  0  0  0
  1  6  1  0  0  0  0
  2 14  2  0  0  0  0
  3  7  1  0  0  0  0
  3  8  1  0  0  0  0
  3  9  1  0  0  0  0
  4  9  2  0  0  0  0
  4 13  1  0  0  0  0
  5 14  1  0  0  0  0
  5 23  1  0  0  0  0
  5 24  1  0  0  0  0
  6  7  1  0  0  0  0
  6  8  1  0  0  0  0
  6 15  1  0  0  0  0
  7 16  1  0  0  0  0
  7 17  1  0  0  0  0
  8 18  1  0  0  0  0
  8 19  1  0  0  0  0
  9 10  1  0  0  0  0
 10 11  2  0  0  0  0
 10 20  1  0  0  0  0
 11 12  1  0  0  0  0
 11 21  1  0  0  0  0
 12 13  2  0  0  0  0
 12 14  1  0  0  0  0
 13 22  1  0  0  0  0
M  END
>  <PUBCHEM_COMPOUND_CID>
170568765

>  <PUBCHEM_CONFORMER_RMSD>
0.6

>  <PUBCHEM_CONFORMER_DIVERSEORDER>
1
6
5
2
3
4

>  <PUBCHEM_MMFF94_PARTIAL_CHARGES>
19
1 -0.3
10 -0.15
11 -0.15
12 0.09
13 0.16
14 0.54
2 -0.57
20 0.15
21 0.15
22 0.15
23 0.37
24 0.37
3 -0.59
4 -0.62
5 -0.8
6 0.3
7 0.25
8 0.25
9 0.41

>  <PUBCHEM_EFFECTIVE_ROTOR_COUNT>
2.8

>  <PUBCHEM_PHARMACOPHORE_FEATURES>
5
1 2 acceptor
1 5 donor
3 3 4 9 cation
4 3 6 7 8 rings
6 4 9 10 11 12 13 rings

>  <PUBCHEM_HEAVY_ATOM_COUNT>
14

>  <PUBCHEM_ATOM_DEF_STEREO_COUNT>
0

>  <PUBCHEM_ATOM_UDEF_STEREO_COUNT>
0

>  <PUBCHEM_BOND_DEF_STEREO_COUNT>
0

>  <PUBCHEM_BOND_UDEF_STEREO_COUNT>
0

>  <PUBCHEM_ISOTOPIC_ATOM_COUNT>
0

>  <PUBCHEM_COMPONENT_COUNT>
1

>  <PUBCHEM_CACTVS_TAUTO_COUNT>
-1

>  <PUBCHEM_CONFORMER_ID>
0A2AAC3D00000001

>  <PUBCHEM_MMFF94_ENERGY>
45.2342

>  <PUBCHEM_FEATURE_SELFOVERLAP>
25.372

>  <PUBCHEM_SHAPE_FINGERPRINT>
10219947 1 18411700989107534006
11062470 55 18413388739234682485
11132069 177 18410566310245424762
11401426 45 18341325651917719732
11471102 20 18411414016419794676
11806522 49 18338794623680205831
12032990 46 18410013217336912814
12251169 10 18410295817832347399
13380535 76 18410012143352878895
13675066 3 18409448098145373664
13690532 89 18409728443767309486
13922767 16 18272367598428285832
14115302 16 17677062307767612854
14252887 29 18272380740965018359
14325111 11 18410572898804391094
15048467 5 15482667996526934474
15196674 1 18410855473018351447
15536298 74 18342457041267494350
18186145 218 17967809444829258854
18522853 276 18413672409277454041
200 152 18130782382987896655
20606313 2 18411699902634048780
20645476 183 17896900930911334366
20645477 70 18342738472941708662
20828058 21 16370724820550434599
20828058 44 18413389856311502675
21267235 1 18410864226436403526
22959321 4 18337106757573304338
23402539 116 16343696613290758293
23402655 69 18342166731822903901
23463225 33 18408602548292519342
23557571 272 17168424844476934071
23558518 356 17538279936123414386
23559900 14 18343581876523588064
42 15 18408323284949626971
449060 50 18410575093453538669
449060 62 18413671322845647008
4990 188 17989494013131190894
5104073 3 18411980295015251083
53655031 270 18342739589521935377
5374978 207 18411130338684102088
537710 114 18411423933884656300
53812653 166 18412541033028696802
69090 78 18201995559926368351
77779 3 18409730659769883229
8809292 202 18187369865233964795

>  <PUBCHEM_SHAPE_MULTIPOLES>
260.03
8.61
1.34
0.61
1.88
0.01
0
-0.41
0.67
-0.49
-0.01
0.13
0.01
0.07

>  <PUBCHEM_SHAPE_SELFOVERLAP>
554.241

>  <PUBCHEM_SHAPE_VOLUME>
145.7

>  <PUBCHEM_COORDINATE_TYPE>
2
5
10

$$$$
