170943887
 OpenBabel01182520543D

 23 23  0  0  0  0  0  0  0  0999 V2000
    1.0476    2.3804    1.1215 O   0  0  0  0  0  0  0  0  0  0  0  0
   -1.1263    0.1944   -0.2925 N   0  0  0  0  0  0  0  0  0  0  0  0
    0.1133   -1.8220   -0.1593 N   0  0  0  0  0  0  0  0  0  0  0  0
   -2.3191   -0.4683   -0.1463 N   0  0  0  0  0  0  0  0  0  0  0  0
   -3.3707    0.4592    0.0842 N   0  0  0  0  0  0  0  0  0  0  0  0
    1.3833    2.4262   -1.1464 N   0  0  0  0  0  0  0  0  0  0  0  0
   -4.6115   -0.2208    0.2109 N   0  0  0  0  0  0  0  0  0  0  0  0
    1.2546    0.3002    0.0365 C   0  0  0  0  0  0  0  0  0  0  0  0
    0.1160   -0.4703   -0.1351 C   0  0  0  0  0  0  0  0  0  0  0  0
    2.4689   -0.3589    0.1935 C   0  0  0  0  0  0  0  0  0  0  0  0
    2.5068   -1.7487    0.1743 C   0  0  0  0  0  0  0  0  0  0  0  0
    1.2251    1.7562    0.0621 C   0  0  0  0  0  0  0  0  0  0  0  0
    1.3120   -2.4276   -0.0035 C   0  0  0  0  0  0  0  0  0  0  0  0
    3.3914    0.1988    0.3324 H   0  0  0  0  0  0  0  0  0  0  0  0
   -1.1287    1.0639   -0.8135 H   0  0  0  0  0  0  0  0  0  0  0  0
    3.4418   -2.2837    0.2950 H   0  0  0  0  0  0  0  0  0  0  0  0
    1.2875   -3.5121   -0.0259 H   0  0  0  0  0  0  0  0  0  0  0  0
   -2.5146   -0.9799   -1.0060 H   0  0  0  0  0  0  0  0  0  0  0  0
   -3.1800    0.9664    0.9471 H   0  0  0  0  0  0  0  0  0  0  0  0
    1.5211    1.9325   -2.0226 H   0  0  0  0  0  0  0  0  0  0  0  0
    1.3644    3.4397   -1.1875 H   0  0  0  0  0  0  0  0  0  0  0  0
   -4.7960   -0.7386   -0.6469 H   0  0  0  0  0  0  0  0  0  0  0  0
   -4.5348   -0.9172    0.9508 H   0  0  0  0  0  0  0  0  0  0  0  0
  1 12  2  0  0  0  0
  2  4  1  0  0  0  0
  2  9  1  0  0  0  0
  2 15  1  0  0  0  0
  3  9  1  0  0  0  0
  3 13  2  0  0  0  0
  4  5  1  0  0  0  0
  4 18  1  0  0  0  0
  5  7  1  0  0  0  0
  5 19  1  0  0  0  0
  6 12  1  0  0  0  0
  6 20  1  0  0  0  0
  6 21  1  0  0  0  0
  7 22  1  0  0  0  0
  7 23  1  0  0  0  0
  8  9  2  0  0  0  0
  8 10  1  0  0  0  0
  8 12  1  0  0  0  0
 10 11  2  0  0  0  0
 10 14  1  0  0  0  0
 11 13  1  0  0  0  0
 11 16  1  0  0  0  0
 13 17  1  0  0  0  0
M  END
>  <PUBCHEM_COMPOUND_CID>
170943887

>  <PUBCHEM_CONFORMER_RMSD>
0.6

>  <PUBCHEM_CONFORMER_DIVERSEORDER>
1
27
14
8
9
43
32
41
38
29
35
33
19
28
37
11
20
10
31
40
25
42
16
23
36
39
17
30
22
2
18
34
15
6
12
24
13
3
5
7
21
26
4

>  <PUBCHEM_MMFF94_PARTIAL_CHARGES>
23
1 -0.57
10 -0.15
11 -0.15
12 0.54
13 0.16
14 0.15
15 0.4
16 0.15
17 0.15
18 0.36
19 0.36
2 -0.51
20 0.37
21 0.37
22 0.36
23 0.36
3 -0.62
4 -0.35
5 -0.36
6 -0.8
7 -0.72
8 0.09
9 0.41

>  <PUBCHEM_EFFECTIVE_ROTOR_COUNT>
4

>  <PUBCHEM_PHARMACOPHORE_FEATURES>
5
1 1 acceptor
1 2 donor
1 3 acceptor
1 6 donor
6 3 8 9 10 11 13 rings

>  <PUBCHEM_HEAVY_ATOM_COUNT>
13

>  <PUBCHEM_ATOM_DEF_STEREO_COUNT>
0

>  <PUBCHEM_ATOM_UDEF_STEREO_COUNT>
0

>  <PUBCHEM_BOND_DEF_STEREO_COUNT>
0

>  <PUBCHEM_BOND_UDEF_STEREO_COUNT>
0

>  <PUBCHEM_ISOTOPIC_ATOM_COUNT>
0

>  <PUBCHEM_COMPONENT_COUNT>
1

>  <PUBCHEM_CACTVS_TAUTO_COUNT>
-1

>  <PUBCHEM_CONFORMER_ID>
0A30658F00000001

>  <PUBCHEM_MMFF94_ENERGY>
41.3217

>  <PUBCHEM_FEATURE_SELFOVERLAP>
25.372

>  <PUBCHEM_SHAPE_FINGERPRINT>
1 1 18338795735865673932
10219947 1 18341610365358151111
11471102 20 18410288091107132175
12346645 6 18336546109505933013
12696612 119 18411983529273122319
13380536 305 18337678610719337894
13922767 16 18411974758986885617
14252887 29 18129945550911863890
14648413 74 18261678172252902803
15477762 27 18411417280927586751
15501101 241 18261394425412474981
16945 1 18341315743549623662
17134986 127 17973171913008850556
17357990 137 17345776130356700689
193761 8 18050564346444935318
20339313 130 18271249309245709079
20511035 2 18194963165423196518
20559304 39 18343586230966493409
20606313 2 18410290285671915983
20645477 70 18410006642338452055
20708731 107 18408609170815624189
20871998 22 18055355725792157278
21040471 1 17906167713325024244
21501502 16 18265894842506482799
21524375 3 18051403260509617749
21639500 275 18340470266748091373
2255824 54 18408042939649743455
23419403 2 17554004833401244832
23558518 356 17831290971631994114
2748010 2 18123174706857498126
305870 269 18196923585854642144
3060560 45 18343586230718814471
3071541 158 18334856065396945037
449060 62 18338805632056029149
54173680 148 17402330373813876274
58734985 188 18341040831325081026
58734987 33 18339917104629394792
7364860 26 18341893008671104051
81228 2 17474391274939419642

>  <PUBCHEM_SHAPE_MULTIPOLES>
231.78
4.91
2.68
0.76
8.65
0.88
0
-1.31
-0.46
-2.11
0.05
-0.2
0.4
-0.1

>  <PUBCHEM_SHAPE_SELFOVERLAP>
474.228

>  <PUBCHEM_SHAPE_VOLUME>
133.1

>  <PUBCHEM_COORDINATE_TYPE>
2
5
10

$$$$
