171037193
 OpenBabel01182520543D

 27 28  0  0  0  0  0  0  0  0999 V2000
    5.0701   -0.4535    0.3980 F   0  0  0  0  0  0  0  0  0  0  0  0
    4.7551    1.2694   -0.8875 F   0  0  0  0  0  0  0  0  0  0  0  0
    0.0983   -1.9834   -0.4019 O   0  0  0  0  0  0  0  0  0  0  0  0
    0.7807    0.0451    0.4901 N   0  0  0  0  0  0  0  0  0  0  0  0
   -3.1620    1.4335   -0.1102 N   0  0  0  0  0  0  0  0  0  0  0  0
   -5.4980    0.9710   -0.0447 N   0  0  0  0  0  0  0  0  0  0  0  0
    2.1968   -0.2730    0.5774 C   0  0  0  0  0  0  0  0  0  0  0  0
    3.1082    0.9282    0.9037 C   0  0  0  0  0  0  0  0  0  0  0  0
    2.9218   -0.3628   -0.7815 C   0  0  0  0  0  0  0  0  0  0  0  0
    4.1191    0.3583   -0.1190 C   0  0  0  0  0  0  0  0  0  0  0  0
   -0.1721   -0.8538   -0.0022 C   0  0  0  0  0  0  0  0  0  0  0  0
   -1.5846   -0.3957   -0.0101 C   0  0  0  0  0  0  0  0  0  0  0  0
   -2.6333   -1.3058    0.0649 C   0  0  0  0  0  0  0  0  0  0  0  0
   -1.8991    0.9510   -0.0956 C   0  0  0  0  0  0  0  0  0  0  0  0
   -3.9459   -0.8475    0.0533 C   0  0  0  0  0  0  0  0  0  0  0  0
   -4.1551    0.5193   -0.0348 C   0  0  0  0  0  0  0  0  0  0  0  0
    2.3849   -1.1368    1.2279 H   0  0  0  0  0  0  0  0  0  0  0  0
    2.7094    1.9094    0.6207 H   0  0  0  0  0  0  0  0  0  0  0  0
    3.4659    0.9754    1.9358 H   0  0  0  0  0  0  0  0  0  0  0  0
    3.1267   -1.3770   -1.1348 H   0  0  0  0  0  0  0  0  0  0  0  0
    2.4632    0.2114   -1.5950 H   0  0  0  0  0  0  0  0  0  0  0  0
    0.4601    0.9374    0.8558 H   0  0  0  0  0  0  0  0  0  0  0  0
   -2.4461   -2.3737    0.1369 H   0  0  0  0  0  0  0  0  0  0  0  0
   -1.1438    1.7244   -0.1860 H   0  0  0  0  0  0  0  0  0  0  0  0
   -4.7695   -1.5516    0.1135 H   0  0  0  0  0  0  0  0  0  0  0  0
   -6.2114    0.3536   -0.4122 H   0  0  0  0  0  0  0  0  0  0  0  0
   -5.6459    1.9702   -0.1152 H   0  0  0  0  0  0  0  0  0  0  0  0
  1 10  1  0  0  0  0
  2 10  1  0  0  0  0
  3 11  2  0  0  0  0
  4  7  1  0  0  0  0
  4 11  1  0  0  0  0
  4 22  1  0  0  0  0
  5 14  1  0  0  0  0
  5 16  2  0  0  0  0
  6 16  1  0  0  0  0
  6 26  1  0  0  0  0
  6 27  1  0  0  0  0
  7  8  1  0  0  0  0
  7  9  1  0  0  0  0
  7 17  1  0  0  0  0
  8 10  1  0  0  0  0
  8 18  1  0  0  0  0
  8 19  1  0  0  0  0
  9 10  1  0  0  0  0
  9 20  1  0  0  0  0
  9 21  1  0  0  0  0
 11 12  1  0  0  0  0
 12 13  1  0  0  0  0
 12 14  2  0  0  0  0
 13 15  2  0  0  0  0
 13 23  1  0  0  0  0
 14 24  1  0  0  0  0
 15 16  1  0  0  0  0
 15 25  1  0  0  0  0
M  END
>  <PUBCHEM_COMPOUND_CID>
171037193

>  <PUBCHEM_CONFORMER_RMSD>
0.6

>  <PUBCHEM_CONFORMER_DIVERSEORDER>
2
15
11
14
6
9
13
5
8
12
4
10
7
3
1

>  <PUBCHEM_MMFF94_PARTIAL_CHARGES>
20
1 -0.3
10 0.6
11 0.54
12 0.09
13 -0.15
14 0.16
15 -0.15
16 0.41
2 -0.3
22 0.37
23 0.15
24 0.15
25 0.15
26 0.4
27 0.4
3 -0.57
4 -0.65
5 -0.62
6 -0.9
7 0.22

>  <PUBCHEM_EFFECTIVE_ROTOR_COUNT>
3.8

>  <PUBCHEM_PHARMACOPHORE_FEATURES>
6
1 3 acceptor
1 4 donor
1 6 donor
3 5 6 16 cation
4 7 8 9 10 rings
6 5 12 13 14 15 16 rings

>  <PUBCHEM_HEAVY_ATOM_COUNT>
16

>  <PUBCHEM_ATOM_DEF_STEREO_COUNT>
0

>  <PUBCHEM_ATOM_UDEF_STEREO_COUNT>
0

>  <PUBCHEM_BOND_DEF_STEREO_COUNT>
0

>  <PUBCHEM_BOND_UDEF_STEREO_COUNT>
0

>  <PUBCHEM_ISOTOPIC_ATOM_COUNT>
0

>  <PUBCHEM_COMPONENT_COUNT>
1

>  <PUBCHEM_CACTVS_TAUTO_COUNT>
-1

>  <PUBCHEM_CONFORMER_ID>
0A31D20900000002

>  <PUBCHEM_MMFF94_ENERGY>
42.9527

>  <PUBCHEM_FEATURE_SELFOVERLAP>
30.446

>  <PUBCHEM_SHAPE_FINGERPRINT>
10014705 185 18260263041133192605
100836 57 18410578374908863969
10354089 29 16950286204313378756
10498660 4 18409727344050375773
10922049 32 18341895194641055439
11045977 3 16226339191169021185
11132069 177 18334857216817276413
12107183 9 17466492417918235680
12236239 1 17748827427327608870
12390115 104 17986405403908332113
12403259 415 17988361584626080042
12596602 18 16805609195639142897
13081056 2 18343299279626989960
13214271 11 18408886252779470655
13897977 58 18261114088644444949
14911166 2 17704353277269315026
14943859 89 18342737424948179810
15048467 5 18409730638938982225
15196674 1 18410574032464975024
15242439 84 18060420218104122000
15342168 16 16371583638459256212
17539 30 17700116992381435271
18186145 218 17418374722527593922
19784866 170 18334860489856617011
200 152 15051736386730081810
20281389 69 18261108556679439209
20645477 56 18411420601016012039
20645477 70 17346324734982515494
20767249 13 9151174246520888593
20767249 213 18186238425103984309
20767249 442 18410008827732532792
212847 35 18410291415580734744
21354914 41 17489873734477646294
21354914 55 17894628158165414581
21652331 79 18187364315835674285
22079108 93 16660649591275726905
221357 26 17561363954867722913
23366157 5 18044660788947282730
23402539 116 18273206517131002326
23402655 69 17918276458814247572
23559900 14 17988922302040428632
245318 6 16591985223761611684
26918003 58 11097849705168370494
2871803 45 9943532911974761120
2916195 48 18059844117261709616
3004659 81 18411422774797309366
351380 180 18272084998285993116
3545911 37 18409450262867004055
4214541 1 18410292527381210858
42788 4 18334575741582089785
449060 50 17748827401705654027
449060 62 18410855426000681491
465052 167 8286196167317210688
474 4 16951977361003903148
4990 188 17632860827997616174
5104073 3 18334292106453056024
5374978 207 8214144041078261398
542803 24 17821447971482481900
58999712 45 18408604781617458463
59755656 520 17240202135974981074
633830 44 18040996258757713110
6430166 295 18412821387314400698
69090 78 17774999119878707326
77779 3 18407478868815274898

>  <PUBCHEM_SHAPE_MULTIPOLES>
293.91
10.94
1.42
0.77
1.87
0.18
0
-3.27
0.58
-0.67
0.1
0.56
-0.06
0.04

>  <PUBCHEM_SHAPE_SELFOVERLAP>
621.796

>  <PUBCHEM_SHAPE_VOLUME>
164.9

>  <PUBCHEM_COORDINATE_TYPE>
2
5
10

$$$$
