171037196
 OpenBabel01182520543D

 30 31  0  0  0  0  0  0  0  0999 V2000
   -3.9663   -0.7838   -1.1788 F   0  0  0  0  0  0  0  0  0  0  0  0
   -4.2862   -1.4171    0.8770 F   0  0  0  0  0  0  0  0  0  0  0  0
    0.2421    2.5409    0.5576 O   0  0  0  0  0  0  0  0  0  0  0  0
   -0.9820    0.7224   -0.2574 N   0  0  0  0  0  0  0  0  0  0  0  0
    3.4247   -0.0062   -1.1177 N   0  0  0  0  0  0  0  0  0  0  0  0
    5.0400   -1.4177   -0.0814 N   0  0  0  0  0  0  0  0  0  0  0  0
   -3.4277   -0.7494    0.0681 C   0  0  0  0  0  0  0  0  0  0  0  0
   -2.0832   -1.4604    0.0503 C   0  0  0  0  0  0  0  0  0  0  0  0
   -3.3161    0.6974    0.5231 C   0  0  0  0  0  0  0  0  0  0  0  0
   -1.0506   -0.6638   -0.7419 C   0  0  0  0  0  0  0  0  0  0  0  0
   -2.2533    1.4484   -0.2743 C   0  0  0  0  0  0  0  0  0  0  0  0
    0.1802    1.3813    0.1516 C   0  0  0  0  0  0  0  0  0  0  0  0
    1.4468    0.6402    0.1130 C   0  0  0  0  0  0  0  0  0  0  0  0
    1.8819   -0.0925    1.2118 C   0  0  0  0  0  0  0  0  0  0  0  0
    2.2477    0.6515   -1.0176 C   0  0  0  0  0  0  0  0  0  0  0  0
    3.0871   -0.7829    1.1467 C   0  0  0  0  0  0  0  0  0  0  0  0
    3.8146   -0.7084   -0.0301 C   0  0  0  0  0  0  0  0  0  0  0  0
   -2.1957   -2.4578   -0.3887 H   0  0  0  0  0  0  0  0  0  0  0  0
   -1.7350   -1.6007    1.0810 H   0  0  0  0  0  0  0  0  0  0  0  0
   -3.0650    0.7205    1.5906 H   0  0  0  0  0  0  0  0  0  0  0  0
   -4.2836    1.1988    0.4111 H   0  0  0  0  0  0  0  0  0  0  0  0
   -0.0828   -1.1655   -0.6839 H   0  0  0  0  0  0  0  0  0  0  0  0
   -1.3305   -0.6213   -1.8013 H   0  0  0  0  0  0  0  0  0  0  0  0
   -2.5584    1.5478   -1.3228 H   0  0  0  0  0  0  0  0  0  0  0  0
   -2.1316    2.4589    0.1286 H   0  0  0  0  0  0  0  0  0  0  0  0
    1.2889   -0.1324    2.1215 H   0  0  0  0  0  0  0  0  0  0  0  0
    1.9609    1.2057   -1.9062 H   0  0  0  0  0  0  0  0  0  0  0  0
    3.4322   -1.3580    1.9998 H   0  0  0  0  0  0  0  0  0  0  0  0
    5.5439   -1.5724    0.7832 H   0  0  0  0  0  0  0  0  0  0  0  0
    5.5711   -1.3555   -0.9412 H   0  0  0  0  0  0  0  0  0  0  0  0
  1  7  1  0  0  0  0
  2  7  1  0  0  0  0
  3 12  2  0  0  0  0
  4 10  1  0  0  0  0
  4 11  1  0  0  0  0
  4 12  1  0  0  0  0
  5 15  1  0  0  0  0
  5 17  2  0  0  0  0
  6 17  1  0  0  0  0
  6 29  1  0  0  0  0
  6 30  1  0  0  0  0
  7  8  1  0  0  0  0
  7  9  1  0  0  0  0
  8 10  1  0  0  0  0
  8 18  1  0  0  0  0
  8 19  1  0  0  0  0
  9 11  1  0  0  0  0
  9 20  1  0  0  0  0
  9 21  1  0  0  0  0
 10 22  1  0  0  0  0
 10 23  1  0  0  0  0
 11 24  1  0  0  0  0
 11 25  1  0  0  0  0
 12 13  1  0  0  0  0
 13 14  1  0  0  0  0
 13 15  2  0  0  0  0
 14 16  2  0  0  0  0
 14 26  1  0  0  0  0
 15 27  1  0  0  0  0
 16 17  1  0  0  0  0
 16 28  1  0  0  0  0
M  END
>  <PUBCHEM_COMPOUND_CID>
171037196

>  <PUBCHEM_CONFORMER_RMSD>
0.6

>  <PUBCHEM_CONFORMER_DIVERSEORDER>
1
24
17
4
22
16
23
13
18
25
12
9
6
14
7
8
15
5
11
10
21
2
3
19
20

>  <PUBCHEM_MMFF94_PARTIAL_CHARGES>
20
1 -0.34
10 0.3
11 0.3
12 0.54
13 0.09
14 -0.15
15 0.16
16 -0.15
17 0.41
2 -0.34
26 0.15
27 0.15
28 0.15
29 0.4
3 -0.57
30 0.4
4 -0.66
5 -0.62
6 -0.9
7 0.68

>  <PUBCHEM_EFFECTIVE_ROTOR_COUNT>
3.2

>  <PUBCHEM_PHARMACOPHORE_FEATURES>
5
1 3 acceptor
1 6 donor
3 5 6 17 cation
6 4 7 8 9 10 11 rings
6 5 13 14 15 16 17 rings

>  <PUBCHEM_HEAVY_ATOM_COUNT>
17

>  <PUBCHEM_ATOM_DEF_STEREO_COUNT>
0

>  <PUBCHEM_ATOM_UDEF_STEREO_COUNT>
0

>  <PUBCHEM_BOND_DEF_STEREO_COUNT>
0

>  <PUBCHEM_BOND_UDEF_STEREO_COUNT>
0

>  <PUBCHEM_ISOTOPIC_ATOM_COUNT>
0

>  <PUBCHEM_COMPONENT_COUNT>
1

>  <PUBCHEM_CACTVS_TAUTO_COUNT>
-1

>  <PUBCHEM_CONFORMER_ID>
0A31D20C00000001

>  <PUBCHEM_MMFF94_ENERGY>
49.3245

>  <PUBCHEM_FEATURE_SELFOVERLAP>
25.372

>  <PUBCHEM_SHAPE_FINGERPRINT>
10062212 137 18410292484837589879
10130415 120 18411983584875698929
10616163 171 18337954463536794474
10618630 7 18413669097809955668
10751810 167 18259706696322410223
11046707 91 18409729534604522208
11543360 7 16226050028311315031
11578080 2 17969197032773061252
11769659 78 18333168366598491684
12032990 46 18412545418090007601
12251169 10 13110962032879814920
12346177 29 17988352711703817733
12363563 72 18342458157563391525
124424 183 18410851058303726293
12553582 1 18410289233267921355
12633257 1 16056592153988427002
12707595 3 18411133679641150305
12892183 10 14549025372448780230
13288520 33 18339927017899405270
13296908 3 18271800233290721160
13583140 156 14405178461284249943
14115302 16 17967536808600013142
14144814 61 18410292536224132193
14178342 30 17703524198663487427
14252887 29 17846786200039231750
14576447 43 17749108877173111778
15188451 53 16701728463093293447
15239191 94 18409450314575371179
15375462 189 18260552203442012785
15653759 3 17988923357747925312
15848700 24 18201146724112003741
16752209 62 18336250263726756005
16945 1 18342173410333232695
17804303 29 18413390947243602513
1798214 20 18040711463618126442
1798214 55 8862948294196002291
18186145 218 17095241431925629220
18522853 295 18342181089149487918
18915474 69 18186805781324618570
193927 3 18334867099437141886
19422 9 18260274048475041044
200 152 17967818223842586680
20279233 1 17346876719594064909
20281407 28 18187078481667293337
20281475 54 18338240469819761167
20291156 8 18334856104257203386
20361792 2 18412255164242627957
204376 136 9007059071419553405
20645477 56 8358243874566932062
20645477 70 18266727168661084551
20767249 271 7997965769716711230
21267235 1 18335993007670188066
21634736 98 18114184185081963138
21713013 43 17240482554595386595
22646028 28 18408040706219205178
22959321 94 18412540986100587066
23227448 37 7852413498526960130
232386 152 18411419522552082980
23402539 116 18271519802054217756
23403322 49 18409446964316458887
23559900 14 18270110207368885008
23590187 135 18411696569976842882
23590187 173 8574449598700405799
328317 168 8070027748657948011
3286 77 16773508988521462755
4028521 119 11530486622871340906
449060 23 18409730621452768174
449060 50 16415472796581059632
458136 41 10737550675575535349
465052 167 18266751345164381895
474 4 13183013030074900886
4921388 177 15285650927477663371
4990 188 14490469785642426402
5104073 3 18341898501765711809
53428517 58 15719116863894236946
5902787 121 18412823611912450160
633830 44 12324231733326549403
7364860 26 18055631965156293776
74978 22 18268425918283782975
76465 3 18201148962228061959
81228 2 17915469289512198048
83771 10 18412265042835986280

>  <PUBCHEM_SHAPE_MULTIPOLES>
314.49
8.37
1.75
1.06
1.49
0.55
0.01
-4.36
-0.19
-0.6
0.2
0.31
-0.07
-0.19

>  <PUBCHEM_SHAPE_SELFOVERLAP>
666.238

>  <PUBCHEM_SHAPE_VOLUME>
175.7

>  <PUBCHEM_COORDINATE_TYPE>
2
5
10

$$$$
