171638145
 OpenBabel01182520543D

 34 34  0  0  0  0  0  0  0  0999 V2000
   -4.9790    1.3445    0.2311 O   0  0  0  0  0  0  0  0  0  0  0  0
    1.1943    0.2227    0.0225 N   0  0  0  0  0  0  0  0  0  0  0  0
   -0.8232    1.4033   -0.2760 N   0  0  0  0  0  0  0  0  0  0  0  0
   -5.0404   -0.9210   -0.2602 N   0  0  0  0  0  0  0  0  0  0  0  0
    6.0187   -0.0675    0.1866 C   0  0  0  0  0  0  0  0  0  0  0  0
   -0.1925    0.2444    0.0195 C   0  0  0  0  0  0  0  0  0  0  0  0
   -2.9211    0.2401    0.0230 C   0  0  0  0  0  0  0  0  0  0  0  0
    6.6566   -0.6813   -1.0573 C   0  0  0  0  0  0  0  0  0  0  0  0
    6.2347    1.4437    0.2132 C   0  0  0  0  0  0  0  0  0  0  0  0
    1.9768   -0.9506    0.3207 C   0  0  0  0  0  0  0  0  0  0  0  0
   -0.8464   -0.9388    0.3229 C   0  0  0  0  0  0  0  0  0  0  0  0
   -2.2369   -0.9326    0.3229 C   0  0  0  0  0  0  0  0  0  0  0  0
   -2.1747    1.3709   -0.2666 C   0  0  0  0  0  0  0  0  0  0  0  0
    4.5793   -0.3807    0.2328 C   0  0  0  0  0  0  0  0  0  0  0  0
   -4.3730    0.2786    0.0172 C   0  0  0  0  0  0  0  0  0  0  0  0
    3.4061   -0.6361    0.2725 C   0  0  0  0  0  0  0  0  0  0  0  0
   -6.4794   -1.0397   -0.3249 C   0  0  0  0  0  0  0  0  0  0  0  0
    6.5016   -0.5004    1.0712 H   0  0  0  0  0  0  0  0  0  0  0  0
    6.2099   -0.2836   -1.9759 H   0  0  0  0  0  0  0  0  0  0  0  0
    6.5239   -1.7690   -1.0695 H   0  0  0  0  0  0  0  0  0  0  0  0
    7.7317   -0.4741   -1.0862 H   0  0  0  0  0  0  0  0  0  0  0  0
    5.7699    1.9313   -0.6516 H   0  0  0  0  0  0  0  0  0  0  0  0
    7.3031    1.6847    0.2044 H   0  0  0  0  0  0  0  0  0  0  0  0
    5.7982    1.8860    1.1158 H   0  0  0  0  0  0  0  0  0  0  0  0
    1.7683   -1.7456   -0.4050 H   0  0  0  0  0  0  0  0  0  0  0  0
    1.7415   -1.3259    1.3238 H   0  0  0  0  0  0  0  0  0  0  0  0
    1.6600    1.0949   -0.2033 H   0  0  0  0  0  0  0  0  0  0  0  0
   -0.3449   -1.8686    0.5648 H   0  0  0  0  0  0  0  0  0  0  0  0
   -2.7502   -1.8524    0.5871 H   0  0  0  0  0  0  0  0  0  0  0  0
   -2.6450    2.3182   -0.5121 H   0  0  0  0  0  0  0  0  0  0  0  0
   -4.5101   -1.7490   -0.5100 H   0  0  0  0  0  0  0  0  0  0  0  0
   -6.7580   -2.0510   -0.0200 H   0  0  0  0  0  0  0  0  0  0  0  0
   -6.9546   -0.3056    0.3303 H   0  0  0  0  0  0  0  0  0  0  0  0
   -6.7918   -0.8665   -1.3577 H   0  0  0  0  0  0  0  0  0  0  0  0
  1 15  2  0  0  0  0
  2  6  1  0  0  0  0
  2 10  1  0  0  0  0
  2 27  1  0  0  0  0
  3  6  2  0  0  0  0
  3 13  1  0  0  0  0
  4 15  1  0  0  0  0
  4 17  1  0  0  0  0
  4 31  1  0  0  0  0
  5  8  1  0  0  0  0
  5  9  1  0  0  0  0
  5 14  1  0  0  0  0
  5 18  1  0  0  0  0
  6 11  1  0  0  0  0
  7 12  1  0  0  0  0
  7 13  2  0  0  0  0
  7 15  1  0  0  0  0
  8 19  1  0  0  0  0
  8 20  1  0  0  0  0
  8 21  1  0  0  0  0
  9 22  1  0  0  0  0
  9 23  1  0  0  0  0
  9 24  1  0  0  0  0
 10 16  1  0  0  0  0
 10 25  1  0  0  0  0
 10 26  1  0  0  0  0
 11 12  2  0  0  0  0
 11 28  1  0  0  0  0
 12 29  1  0  0  0  0
 13 30  1  0  0  0  0
 14 16  3  0  0  0  0
 17 32  1  0  0  0  0
 17 33  1  0  0  0  0
 17 34  1  0  0  0  0
M  END
>  <PUBCHEM_COMPOUND_CID>
171638145

>  <PUBCHEM_CONFORMER_RMSD>
0.6

>  <PUBCHEM_CONFORMER_DIVERSEORDER>
2
43
33
28
12
14
51
9
47
44
35
34
3
49
25
24
6
41
18
40
23
38
15
16
48
30
31
26
17
22
42
19
50
21
37
5
39
36
27
1
46
7
4
11
45
20
13
32
8
29
10

>  <PUBCHEM_MMFF94_PARTIAL_CHARGES>
20
1 -0.57
10 0.57
11 -0.15
12 -0.15
13 0.16
14 -0.2
15 0.54
16 -0.2
17 0.3
2 -0.87
27 0.4
28 0.15
29 0.15
3 -0.62
30 0.15
31 0.37
4 -0.73
5 0.2
6 0.41
7 0.09

>  <PUBCHEM_EFFECTIVE_ROTOR_COUNT>
4

>  <PUBCHEM_PHARMACOPHORE_FEATURES>
6
1 1 acceptor
1 2 donor
1 4 donor
3 2 3 6 cation
3 5 8 9 hydrophobe
6 3 6 7 11 12 13 rings

>  <PUBCHEM_HEAVY_ATOM_COUNT>
17

>  <PUBCHEM_ATOM_DEF_STEREO_COUNT>
0

>  <PUBCHEM_ATOM_UDEF_STEREO_COUNT>
0

>  <PUBCHEM_BOND_DEF_STEREO_COUNT>
0

>  <PUBCHEM_BOND_UDEF_STEREO_COUNT>
0

>  <PUBCHEM_ISOTOPIC_ATOM_COUNT>
0

>  <PUBCHEM_COMPONENT_COUNT>
1

>  <PUBCHEM_CACTVS_TAUTO_COUNT>
-1

>  <PUBCHEM_CONFORMER_ID>
0A3AFD8100000002

>  <PUBCHEM_MMFF94_ENERGY>
37.4352

>  <PUBCHEM_FEATURE_SELFOVERLAP>
30.446

>  <PUBCHEM_SHAPE_FINGERPRINT>
10968037 39 18260268551022306247
11315181 36 17603591845561575193
11524674 6 16056595465155083759
12091667 2 18186804660644005593
12236239 1 17748824086054172722
12390115 104 18197787595862413897
13288520 33 18342457050205634071
13533116 47 13110972990127494692
1420 363 18272933821399883742
14251718 22 18412824685543302922
14251732 16 18412824711471251768
14528608 73 18408886244152333412
15048467 5 18411136913804440800
15716309 27 17846779620086017831
15778101 99 18129667383624272609
19489759 90 13479130177215003967
200 152 18131067130144169931
20281389 69 17967246486428457548
20612939 158 17530971327298170045
20645477 70 17916871197651307510
20767249 13 18040151812014855282
20767249 213 17385726898199893894
21150785 3 16370722652056414155
21267235 1 18410015468432772731
21315763 28 18411135831868022114
22896161 15 18411135874306135035
2297311 6 18201723933383474744
23035841 295 17918274246848399270
23081809 10 17822291245535438986
23218964 4 9943808889271643394
23272321 79 18408322194196972720
23402539 116 18409161091794163429
23559900 14 18338510962285833153
3009799 131 16877654665406062789
335352 9 18408317801463385015
34797466 226 18060425746418323556
3545911 37 18260832579703628238
42788 4 18412544306115451666
4325135 7 18335420170717564134
4463277 17 18410292501658918825
5104073 3 18042404625567566688
59345606 91 18335137579350004040
59755656 215 18411987927832018662
59755656 520 17385441029604216978
7062679 117 18335702758513031123

>  <PUBCHEM_SHAPE_MULTIPOLES>
329.04
17.74
1.37
0.72
11.43
0.34
-0.07
-0.96
-2.32
-0.38
-0.01
0.47
-0.07
0.18

>  <PUBCHEM_SHAPE_SELFOVERLAP>
664.217

>  <PUBCHEM_SHAPE_VOLUME>
189.8

>  <PUBCHEM_COORDINATE_TYPE>
2
5
10

$$$$
