172272034
 OpenBabel01182520543D

 24 25  0  0  0  0  0  0  0  0999 V2000
   -4.3520   -0.1136    1.2028 F   0  0  0  0  0  0  0  0  0  0  0  0
   -4.6584    0.1060   -0.9363 F   0  0  0  0  0  0  0  0  0  0  0  0
    4.5861   -1.0814    0.0235 O   0  0  0  0  0  0  0  0  0  0  0  0
   -1.6565    0.0113   -0.0241 N   0  0  0  0  0  0  0  0  0  0  0  0
    0.3956    1.1949   -0.0080 N   0  0  0  0  0  0  0  0  0  0  0  0
    4.5626    1.2116    0.0180 N   0  0  0  0  0  0  0  0  0  0  0  0
   -3.7084    0.0076    0.0196 C   0  0  0  0  0  0  0  0  0  0  0  0
   -2.6024    1.0705   -0.0260 C   0  0  0  0  0  0  0  0  0  0  0  0
   -2.6031   -1.0248   -0.2408 C   0  0  0  0  0  0  0  0  0  0  0  0
   -0.2550    0.0099   -0.0161 C   0  0  0  0  0  0  0  0  0  0  0  0
    0.3782   -1.2225   -0.0164 C   0  0  0  0  0  0  0  0  0  0  0  0
    1.7686   -1.2399   -0.0078 C   0  0  0  0  0  0  0  0  0  0  0  0
    2.4731   -0.0412    0.0017 C   0  0  0  0  0  0  0  0  0  0  0  0
    1.7463    1.1385    0.0009 C   0  0  0  0  0  0  0  0  0  0  0  0
    3.9254   -0.0268    0.0088 C   0  0  0  0  0  0  0  0  0  0  0  0
   -2.5669    1.6670   -0.9418 H   0  0  0  0  0  0  0  0  0  0  0  0
   -2.5343    1.7114    0.8562 H   0  0  0  0  0  0  0  0  0  0  0  0
   -2.5492   -1.8312    0.4948 H   0  0  0  0  0  0  0  0  0  0  0  0
   -2.5711   -1.4239   -1.2585 H   0  0  0  0  0  0  0  0  0  0  0  0
   -0.1640   -2.1619   -0.0223 H   0  0  0  0  0  0  0  0  0  0  0  0
    2.2819   -2.1976   -0.0084 H   0  0  0  0  0  0  0  0  0  0  0  0
    2.1915    2.1253    0.0072 H   0  0  0  0  0  0  0  0  0  0  0  0
    4.0999    2.1117    0.0125 H   0  0  0  0  0  0  0  0  0  0  0  0
    5.5770    1.2508    0.0299 H   0  0  0  0  0  0  0  0  0  0  0  0
  1  7  1  0  0  0  0
  2  7  1  0  0  0  0
  3 15  2  0  0  0  0
  4  8  1  0  0  0  0
  4  9  1  0  0  0  0
  4 10  1  0  0  0  0
  5 10  2  0  0  0  0
  5 14  1  0  0  0  0
  6 15  1  0  0  0  0
  6 23  1  0  0  0  0
  6 24  1  0  0  0  0
  7  8  1  0  0  0  0
  7  9  1  0  0  0  0
  8 16  1  0  0  0  0
  8 17  1  0  0  0  0
  9 18  1  0  0  0  0
  9 19  1  0  0  0  0
 10 11  1  0  0  0  0
 11 12  2  0  0  0  0
 11 20  1  0  0  0  0
 12 13  1  0  0  0  0
 12 21  1  0  0  0  0
 13 14  2  0  0  0  0
 13 15  1  0  0  0  0
 14 22  1  0  0  0  0
M  END
>  <PUBCHEM_COMPOUND_CID>
172272034

>  <PUBCHEM_CONFORMER_RMSD>
0.6

>  <PUBCHEM_CONFORMER_DIVERSEORDER>
1
4
2
3

>  <PUBCHEM_MMFF94_PARTIAL_CHARGES>
20
1 -0.3
10 0.41
11 -0.15
12 -0.15
13 0.09
14 0.16
15 0.54
2 -0.3
20 0.15
21 0.15
22 0.15
23 0.37
24 0.37
3 -0.57
4 -0.59
5 -0.62
6 -0.8
7 0.6
8 0.25
9 0.25

>  <PUBCHEM_EFFECTIVE_ROTOR_COUNT>
2.8

>  <PUBCHEM_PHARMACOPHORE_FEATURES>
5
1 3 acceptor
1 6 donor
3 4 5 10 cation
4 4 7 8 9 rings
6 5 10 11 12 13 14 rings

>  <PUBCHEM_HEAVY_ATOM_COUNT>
15

>  <PUBCHEM_ATOM_DEF_STEREO_COUNT>
0

>  <PUBCHEM_ATOM_UDEF_STEREO_COUNT>
0

>  <PUBCHEM_BOND_DEF_STEREO_COUNT>
0

>  <PUBCHEM_BOND_UDEF_STEREO_COUNT>
0

>  <PUBCHEM_ISOTOPIC_ATOM_COUNT>
0

>  <PUBCHEM_COMPONENT_COUNT>
1

>  <PUBCHEM_CACTVS_TAUTO_COUNT>
-1

>  <PUBCHEM_CONFORMER_ID>
0A44A9A200000001

>  <PUBCHEM_MMFF94_ENERGY>
44.137

>  <PUBCHEM_FEATURE_SELFOVERLAP>
25.372

>  <PUBCHEM_SHAPE_FINGERPRINT>
10219947 1 18410294709440654188
10912923 1 17561082518344783346
11062470 55 18411138038948423274
11132069 177 18410566314556203322
11401426 45 18411412925587720188
11471102 20 18410570691233366556
11806522 49 18412259575263477831
11987891 27 17632571651975615398
12032990 46 18408608041518735086
12236239 1 17846499231994281299
124424 183 18187080646362342019
13380535 76 18410857667747165894
13675066 3 18259987088941007956
13690532 89 18410854343769065174
13760787 5 18412545413874226660
13862211 1 18411131412257399966
14144814 61 18412546487906090579
14252887 29 18272662216147418366
14943859 89 18409166627516507754
15196674 1 18410855468723377646
17802600 8 18412258437160798565
18186145 218 18202565102992107952
18522853 276 18413671305228226849
200 152 18202275914586267757
20279233 1 17894351073209737283
20606313 2 18410292527797974788
20645477 70 18264762182289636895
20767249 13 18342734109148933878
20828058 21 16443066105620524427
21267235 1 18411427180769181694
23402539 116 17418370277648061309
23402655 69 18341886360499794493
23557571 272 17168422645211039967
23559900 14 18272088344835793032
265663 24 17489584571446165990
2871803 45 18261670381129454158
42 15 18409732854535101264
449060 50 18408608075567250183
449060 62 18341896303422677546
4990 188 17775010080951491526
5104073 3 18412544348643405162
53655031 270 18343304742909624112
633830 44 17458340862016405230
69090 78 18131064956785509030
77779 3 18410857659172522848
8809292 202 18187932815029156555
9709674 26 18341619182878660687

>  <PUBCHEM_SHAPE_MULTIPOLES>
273.33
9.19
1.3
0.69
0.59
0.01
0.04
-0.34
0.11
-0.65
-0.02
0.51
0.01
0

>  <PUBCHEM_SHAPE_SELFOVERLAP>
586.416

>  <PUBCHEM_SHAPE_VOLUME>
152

>  <PUBCHEM_COORDINATE_TYPE>
2
5
10

$$$$
