17856504
 OpenBabel01182520543D

 25 25  0  0  0  0  0  0  0  0999 V2000
   -3.8707   -1.4478    0.0143 O   0  0  0  0  0  0  0  0  0  0  0  0
    2.0634    0.6737   -0.0097 N   0  0  0  0  0  0  0  0  0  0  0  0
   -0.1229    1.5015    0.0003 N   0  0  0  0  0  0  0  0  0  0  0  0
    5.4875   -0.7519    0.0168 N   0  0  0  0  0  0  0  0  0  0  0  0
   -4.2334    0.8165    0.0084 N   0  0  0  0  0  0  0  0  0  0  0  0
    3.0723   -0.3585   -0.0177 C   0  0  0  0  0  0  0  0  0  0  0  0
    4.4558    0.2777    0.0163 C   0  0  0  0  0  0  0  0  0  0  0  0
    0.7179    0.4428   -0.0069 C   0  0  0  0  0  0  0  0  0  0  0  0
    0.3012   -0.8787   -0.0123 C   0  0  0  0  0  0  0  0  0  0  0  0
   -1.9629   -0.0669   -0.0027 C   0  0  0  0  0  0  0  0  0  0  0  0
   -1.0664   -1.1298   -0.0101 C   0  0  0  0  0  0  0  0  0  0  0  0
   -1.4449    1.2183    0.0022 C   0  0  0  0  0  0  0  0  0  0  0  0
   -3.3968   -0.2970    0.0010 C   0  0  0  0  0  0  0  0  0  0  0  0
    2.9810   -0.9732   -0.9222 H   0  0  0  0  0  0  0  0  0  0  0  0
    2.9584   -1.0075    0.8600 H   0  0  0  0  0  0  0  0  0  0  0  0
    2.3576    1.6441   -0.0076 H   0  0  0  0  0  0  0  0  0  0  0  0
    4.5660    0.9044    0.9089 H   0  0  0  0  0  0  0  0  0  0  0  0
    4.5960    0.9266   -0.8556 H   0  0  0  0  0  0  0  0  0  0  0  0
    0.9713   -1.7306   -0.0197 H   0  0  0  0  0  0  0  0  0  0  0  0
   -1.4117   -2.1601   -0.0146 H   0  0  0  0  0  0  0  0  0  0  0  0
   -2.0500    2.1160    0.0088 H   0  0  0  0  0  0  0  0  0  0  0  0
    5.3865   -1.3397    0.8434 H   0  0  0  0  0  0  0  0  0  0  0  0
    6.4040   -0.3121    0.0896 H   0  0  0  0  0  0  0  0  0  0  0  0
   -3.9287    1.7817    0.0031 H   0  0  0  0  0  0  0  0  0  0  0  0
   -5.2399    0.6844    0.0180 H   0  0  0  0  0  0  0  0  0  0  0  0
  1 13  2  0  0  0  0
  2  6  1  0  0  0  0
  2  8  1  0  0  0  0
  2 16  1  0  0  0  0
  3  8  2  0  0  0  0
  3 12  1  0  0  0  0
  4  7  1  0  0  0  0
  4 22  1  0  0  0  0
  4 23  1  0  0  0  0
  5 13  1  0  0  0  0
  5 24  1  0  0  0  0
  5 25  1  0  0  0  0
  6  7  1  0  0  0  0
  6 14  1  0  0  0  0
  6 15  1  0  0  0  0
  7 17  1  0  0  0  0
  7 18  1  0  0  0  0
  8  9  1  0  0  0  0
  9 11  2  0  0  0  0
  9 19  1  0  0  0  0
 10 11  1  0  0  0  0
 10 12  2  0  0  0  0
 10 13  1  0  0  0  0
 11 20  1  0  0  0  0
 12 21  1  0  0  0  0
M  END
>  <PUBCHEM_COMPOUND_CID>
17856504

>  <PUBCHEM_CONFORMER_RMSD>
0.6

>  <PUBCHEM_CONFORMER_DIVERSEORDER>
1
14
21
19
11
23
12
18
26
20
2
24
15
13
7
25
4
22
17
8
10
5
9
3
6
16

>  <PUBCHEM_MMFF94_PARTIAL_CHARGES>
21
1 -0.57
10 0.09
11 -0.15
12 0.16
13 0.54
16 0.4
19 0.15
2 -0.87
20 0.15
21 0.15
22 0.36
23 0.36
24 0.37
25 0.37
3 -0.62
4 -0.99
5 -0.8
6 0.37
7 0.27
8 0.41
9 -0.15

>  <PUBCHEM_EFFECTIVE_ROTOR_COUNT>
4

>  <PUBCHEM_PHARMACOPHORE_FEATURES>
7
1 1 acceptor
1 2 donor
1 4 cation
1 4 donor
1 5 donor
3 2 3 8 cation
6 3 8 9 10 11 12 rings

>  <PUBCHEM_HEAVY_ATOM_COUNT>
13

>  <PUBCHEM_ATOM_DEF_STEREO_COUNT>
0

>  <PUBCHEM_ATOM_UDEF_STEREO_COUNT>
0

>  <PUBCHEM_BOND_DEF_STEREO_COUNT>
0

>  <PUBCHEM_BOND_UDEF_STEREO_COUNT>
0

>  <PUBCHEM_ISOTOPIC_ATOM_COUNT>
0

>  <PUBCHEM_COMPONENT_COUNT>
1

>  <PUBCHEM_CACTVS_TAUTO_COUNT>
7

>  <PUBCHEM_CONFORMER_ID>
011077F800000001

>  <PUBCHEM_MMFF94_ENERGY>
35.4146

>  <PUBCHEM_FEATURE_SELFOVERLAP>
35.522

>  <PUBCHEM_SHAPE_FINGERPRINT>
11062470 55 11743843564243518950
11401426 45 18413103961644399093
12032990 46 18410295856144285123
12119455 92 17132112433466258788
13214271 11 18344144787315914751
13288520 33 18412547587649820438
13690532 89 18335420179634442014
14325111 11 18410856602979956589
14993402 34 16805603689680713486
18186145 218 16878219865474148821
187816 3 17313104159121521489
200 152 17775562039672093428
21267235 1 18337399326329383619
22485316 2 18411979161233431374
23402539 116 18272081699582246629
23402655 69 18268976611144730309
23559900 14 18413105091864512648
366044 4 18411136930831393971
42 15 18410011027172617138
42788 4 18410855464887307270
53655031 270 18408603634555228946

>  <PUBCHEM_SHAPE_MULTIPOLES>
241.74
9
1.31
0.58
7.82
0.05
0
-1.57
0.07
-0.68
0
0.01
0
0

>  <PUBCHEM_SHAPE_SELFOVERLAP>
495.166

>  <PUBCHEM_SHAPE_VOLUME>
138.9

>  <PUBCHEM_COORDINATE_TYPE>
2
5
10

$$$$
