17893016
 OpenBabel01182520543D

 23 24  0  0  0  0  0  0  0  0999 V2000
    4.2132   -1.0532   -0.0120 O   0  0  0  0  0  0  0  0  0  0  0  0
   -2.0402    0.0047   -0.0011 N   0  0  0  0  0  0  0  0  0  0  0  0
   -0.0103    1.1787   -0.0017 N   0  0  0  0  0  0  0  0  0  0  0  0
    4.1367    1.2249    0.0023 N   0  0  0  0  0  0  0  0  0  0  0  0
   -0.6540   -0.0101    0.0006 C   0  0  0  0  0  0  0  0  0  0  0  0
   -0.0136   -1.2389    0.0036 C   0  0  0  0  0  0  0  0  0  0  0  0
   -2.8421   -1.1068    0.0000 C   0  0  0  0  0  0  0  0  0  0  0  0
   -2.8186    1.1325   -0.0014 C   0  0  0  0  0  0  0  0  0  0  0  0
    2.0745   -0.0453    0.0025 C   0  0  0  0  0  0  0  0  0  0  0  0
    1.3768   -1.2481    0.0047 C   0  0  0  0  0  0  0  0  0  0  0  0
   -4.1523   -0.6817   -0.0005 C   0  0  0  0  0  0  0  0  0  0  0  0
   -4.1374    0.7350   -0.0013 C   0  0  0  0  0  0  0  0  0  0  0  0
    1.3408    1.1300   -0.0006 C   0  0  0  0  0  0  0  0  0  0  0  0
    3.5265   -0.0218    0.0048 C   0  0  0  0  0  0  0  0  0  0  0  0
   -0.5035   -2.2033    0.0056 H   0  0  0  0  0  0  0  0  0  0  0  0
   -2.4816   -2.1246    0.0006 H   0  0  0  0  0  0  0  0  0  0  0  0
   -2.3947    2.1284   -0.0017 H   0  0  0  0  0  0  0  0  0  0  0  0
    1.8979   -2.2018    0.0076 H   0  0  0  0  0  0  0  0  0  0  0  0
   -5.0227   -1.3227   -0.0001 H   0  0  0  0  0  0  0  0  0  0  0  0
   -4.9939    1.3944   -0.0015 H   0  0  0  0  0  0  0  0  0  0  0  0
    1.7760    2.1211   -0.0029 H   0  0  0  0  0  0  0  0  0  0  0  0
    3.6630    2.1189    0.0095 H   0  0  0  0  0  0  0  0  0  0  0  0
    5.1504    1.2817   -0.0049 H   0  0  0  0  0  0  0  0  0  0  0  0
  1 14  2  0  0  0  0
  2  5  1  0  0  0  0
  2  7  1  0  0  0  0
  2  8  1  0  0  0  0
  3  5  2  0  0  0  0
  3 13  1  0  0  0  0
  4 14  1  0  0  0  0
  4 22  1  0  0  0  0
  4 23  1  0  0  0  0
  5  6  1  0  0  0  0
  6 10  2  0  0  0  0
  6 15  1  0  0  0  0
  7 11  2  0  0  0  0
  7 16  1  0  0  0  0
  8 12  2  0  0  0  0
  8 17  1  0  0  0  0
  9 10  1  0  0  0  0
  9 13  2  0  0  0  0
  9 14  1  0  0  0  0
 10 18  1  0  0  0  0
 11 12  1  0  0  0  0
 11 19  1  0  0  0  0
 12 20  1  0  0  0  0
 13 21  1  0  0  0  0
M  END
>  <PUBCHEM_COMPOUND_CID>
17893016

>  <PUBCHEM_CONFORMER_RMSD>
0.6

>  <PUBCHEM_CONFORMER_DIVERSEORDER>
1
4
2
3

>  <PUBCHEM_MMFF94_PARTIAL_CHARGES>
23
1 -0.57
10 -0.15
11 -0.15
12 -0.15
13 0.16
14 0.54
15 0.15
16 0.15
17 0.15
18 0.15
19 0.15
2 0.33
20 0.15
21 0.15
22 0.37
23 0.37
3 -0.62
4 -0.8
5 0.29
6 -0.15
7 -0.3
8 -0.3
9 0.09

>  <PUBCHEM_EFFECTIVE_ROTOR_COUNT>
2

>  <PUBCHEM_PHARMACOPHORE_FEATURES>
5
1 1 acceptor
1 4 donor
3 2 3 5 cation
5 2 7 8 11 12 rings
6 3 5 6 9 10 13 rings

>  <PUBCHEM_HEAVY_ATOM_COUNT>
14

>  <PUBCHEM_ATOM_DEF_STEREO_COUNT>
0

>  <PUBCHEM_ATOM_UDEF_STEREO_COUNT>
0

>  <PUBCHEM_BOND_DEF_STEREO_COUNT>
0

>  <PUBCHEM_BOND_UDEF_STEREO_COUNT>
0

>  <PUBCHEM_ISOTOPIC_ATOM_COUNT>
0

>  <PUBCHEM_COMPONENT_COUNT>
1

>  <PUBCHEM_CACTVS_TAUTO_COUNT>
2

>  <PUBCHEM_CONFORMER_ID>
0111069800000001

>  <PUBCHEM_MMFF94_ENERGY>
37.8567

>  <PUBCHEM_FEATURE_SELFOVERLAP>
25.371

>  <PUBCHEM_SHAPE_FINGERPRINT>
10219947 1 18409732858983023356
10608611 8 18410289203350986213
11062470 55 18410293609696930769
11132069 177 18410287016985454528
11401426 45 18412257341869869322
11471102 20 18410852161814896132
11806522 49 18338232777591473263
12032990 46 18411423899218761382
13380535 76 18409450288827140667
13675066 3 18342455962887876706
13690532 89 18410011022577040962
14144814 61 18410011014108295883
14325111 11 18410575093268876736
15196674 1 18410575088963320965
15536298 74 18342458145010779374
18186145 218 17894908520982965814
18522853 276 18413672417925404417
200 152 18130780184027957695
20201158 50 18409168796759906859
20645477 70 18272089348977581830
21267235 1 18410865342901099147
22485316 2 18408881841093573146
23402539 116 18273206495698363830
23402655 69 18341602669552106685
23463225 33 18408040693434439166
23559900 14 18342175566660061850
3312278 4 18413390921542247257
4990 188 18131360687164655758
5104073 3 18410575089037181475
69090 78 18201996663764650871
7364860 26 18196652895609786070
77779 3 18411139134154508271
8809292 202 18188214303091320123

>  <PUBCHEM_SHAPE_MULTIPOLES>
267.3
8.28
1.43
0.59
0.62
0
0
-0.36
0.01
0.11
0
-0.04
0.01
0

>  <PUBCHEM_SHAPE_SELFOVERLAP>
583.692

>  <PUBCHEM_SHAPE_VOLUME>
145.3

>  <PUBCHEM_COORDINATE_TYPE>
2
5
10

$$$$
