18404634
 OpenBabel01182520543D

 15 15  0  0  0  0  0  0  0  0999 V2000
    3.2320    0.4853    0.0006 O   0  0  0  0  0  0  0  0  0  0  0  0
   -1.2545   -1.1771    0.0002 N   0  0  0  0  0  0  0  0  0  0  0  0
   -3.1521    0.2636    0.0002 N   0  0  0  0  0  0  0  0  0  0  0  0
    0.9652   -0.2193   -0.0008 C   0  0  0  0  0  0  0  0  0  0  0  0
    0.4210    1.0602   -0.0005 C   0  0  0  0  0  0  0  0  0  0  0  0
   -0.9601    1.2223    0.0001 C   0  0  0  0  0  0  0  0  0  0  0  0
   -1.7469    0.0819    0.0003 C   0  0  0  0  0  0  0  0  0  0  0  0
    0.0921   -1.2952   -0.0002 C   0  0  0  0  0  0  0  0  0  0  0  0
    2.4033   -0.4217    0.0001 C   0  0  0  0  0  0  0  0  0  0  0  0
    1.0558    1.9421   -0.0007 H   0  0  0  0  0  0  0  0  0  0  0  0
   -1.3919    2.2178   -0.0006 H   0  0  0  0  0  0  0  0  0  0  0  0
    0.4533   -2.3192    0.0002 H   0  0  0  0  0  0  0  0  0  0  0  0
    2.7395   -1.4730    0.0006 H   0  0  0  0  0  0  0  0  0  0  0  0
   -3.5292    1.1050    0.4185 H   0  0  0  0  0  0  0  0  0  0  0  0
   -3.7233   -0.5724    0.0065 H   0  0  0  0  0  0  0  0  0  0  0  0
  1  9  2  0  0  0  0
  2  7  2  0  0  0  0
  2  8  1  0  0  0  0
  3  7  1  0  0  0  0
  3 14  1  0  0  0  0
  3 15  1  0  0  0  0
  4  5  1  0  0  0  0
  4  8  2  0  0  0  0
  4  9  1  0  0  0  0
  5  6  2  0  0  0  0
  5 10  1  0  0  0  0
  6  7  1  0  0  0  0
  6 11  1  0  0  0  0
  8 12  1  0  0  0  0
  9 13  1  0  0  0  0
M  END
>  <PUBCHEM_COMPOUND_CID>
18404634

>  <PUBCHEM_CONFORMER_RMSD>
0.4

>  <PUBCHEM_CONFORMER_DIVERSEORDER>
1
2

>  <PUBCHEM_MMFF94_PARTIAL_CHARGES>
15
1 -0.57
10 0.15
11 0.15
12 0.15
13 0.06
14 0.4
15 0.4
2 -0.62
3 -0.9
4 0.09
5 -0.15
6 -0.15
7 0.41
8 0.16
9 0.42

>  <PUBCHEM_EFFECTIVE_ROTOR_COUNT>
1

>  <PUBCHEM_PHARMACOPHORE_FEATURES>
4
1 1 acceptor
1 3 donor
3 2 3 7 cation
6 2 4 5 6 7 8 rings

>  <PUBCHEM_HEAVY_ATOM_COUNT>
9

>  <PUBCHEM_ATOM_DEF_STEREO_COUNT>
0

>  <PUBCHEM_ATOM_UDEF_STEREO_COUNT>
0

>  <PUBCHEM_BOND_DEF_STEREO_COUNT>
0

>  <PUBCHEM_BOND_UDEF_STEREO_COUNT>
0

>  <PUBCHEM_ISOTOPIC_ATOM_COUNT>
0

>  <PUBCHEM_COMPONENT_COUNT>
1

>  <PUBCHEM_CACTVS_TAUTO_COUNT>
5

>  <PUBCHEM_CONFORMER_ID>
0118D51A00000001

>  <PUBCHEM_MMFF94_ENERGY>
27.6866

>  <PUBCHEM_FEATURE_SELFOVERLAP>
20.297

>  <PUBCHEM_SHAPE_FINGERPRINT>
10857977 72 18410004476830474408
14325111 11 18410856521011574592
15310529 11 16660635237415687600
16714656 1 18410573980888132388
16945 1 18410575080373412357
193761 8 17690279738966287845
21040471 1 18338516331005106054
21293036 1 18409721876878254821
23235685 24 18411413999282123365
23402655 69 18123733289715935845
23552423 10 18044093677401828636
2748010 2 18122904497458600941
29004967 10 15357697470353741370
369184 2 16226044500735812808
5084963 1 18271525286743122880

>  <PUBCHEM_SHAPE_MULTIPOLES>
169.38
3.88
1.29
0.59
0.73
0.07
0
-0.38
0
-0.14
0
0.01
0
0

>  <PUBCHEM_SHAPE_SELFOVERLAP>
352.645

>  <PUBCHEM_SHAPE_VOLUME>
95.4

>  <PUBCHEM_COORDINATE_TYPE>
2
5
10

$$$$
