18715057
 OpenBabel01182520543D

 21 21  0  0  0  0  0  0  0  0999 V2000
    3.0245    1.2679   -0.3976 O   0  0  0  0  0  0  0  0  0  0  0  0
   -3.0610   -0.4226   -0.0400 N   0  0  0  0  0  0  0  0  0  0  0  0
   -1.1477    0.9850    0.1446 N   0  0  0  0  0  0  0  0  0  0  0  0
    1.0611    0.0161   -0.0201 C   0  0  0  0  0  0  0  0  0  0  0  0
   -1.6540   -0.2561   -0.0312 C   0  0  0  0  0  0  0  0  0  0  0  0
    0.5028   -1.2446   -0.1985 C   0  0  0  0  0  0  0  0  0  0  0  0
   -0.8799   -1.3919   -0.2054 C   0  0  0  0  0  0  0  0  0  0  0  0
    0.2001    1.0891    0.1455 C   0  0  0  0  0  0  0  0  0  0  0  0
    2.5013    0.2030   -0.0095 C   0  0  0  0  0  0  0  0  0  0  0  0
    3.4195   -0.9122    0.4817 C   0  0  0  0  0  0  0  0  0  0  0  0
   -3.9666    0.6665    0.1306 C   0  0  0  0  0  0  0  0  0  0  0  0
    1.1223   -2.1249   -0.3452 H   0  0  0  0  0  0  0  0  0  0  0  0
   -1.3218   -2.3731   -0.3459 H   0  0  0  0  0  0  0  0  0  0  0  0
    0.5705    2.0992    0.2923 H   0  0  0  0  0  0  0  0  0  0  0  0
   -3.4205   -1.3010   -0.3980 H   0  0  0  0  0  0  0  0  0  0  0  0
    3.6956   -1.5541   -0.3584 H   0  0  0  0  0  0  0  0  0  0  0  0
    2.9317   -1.4998    1.2641 H   0  0  0  0  0  0  0  0  0  0  0  0
    4.3200   -0.4681    0.9164 H   0  0  0  0  0  0  0  0  0  0  0  0
   -3.8476    1.4100   -0.6643 H   0  0  0  0  0  0  0  0  0  0  0  0
   -3.8208    1.1557    1.0992 H   0  0  0  0  0  0  0  0  0  0  0  0
   -4.9983    0.3029    0.0949 H   0  0  0  0  0  0  0  0  0  0  0  0
  1  9  2  0  0  0  0
  2  5  1  0  0  0  0
  2 11  1  0  0  0  0
  2 15  1  0  0  0  0
  3  5  2  0  0  0  0
  3  8  1  0  0  0  0
  4  6  1  0  0  0  0
  4  8  2  0  0  0  0
  4  9  1  0  0  0  0
  5  7  1  0  0  0  0
  6  7  2  0  0  0  0
  6 12  1  0  0  0  0
  7 13  1  0  0  0  0
  8 14  1  0  0  0  0
  9 10  1  0  0  0  0
 10 16  1  0  0  0  0
 10 17  1  0  0  0  0
 10 18  1  0  0  0  0
 11 19  1  0  0  0  0
 11 20  1  0  0  0  0
 11 21  1  0  0  0  0
M  END
>  <PUBCHEM_COMPOUND_CID>
18715057

>  <PUBCHEM_CONFORMER_RMSD>
0.4

>  <PUBCHEM_CONFORMER_DIVERSEORDER>
2
14
16
1
9
18
10
17
7
6
15
8
4
13
12
3
5
11

>  <PUBCHEM_MMFF94_PARTIAL_CHARGES>
15
1 -0.57
10 0.06
11 0.37
12 0.15
13 0.15
14 0.15
15 0.4
2 -0.87
3 -0.62
4 0.09
5 0.41
6 -0.15
7 -0.15
8 0.16
9 0.42

>  <PUBCHEM_EFFECTIVE_ROTOR_COUNT>
2

>  <PUBCHEM_PHARMACOPHORE_FEATURES>
4
1 1 acceptor
1 2 donor
3 2 3 5 cation
6 3 4 5 6 7 8 rings

>  <PUBCHEM_HEAVY_ATOM_COUNT>
11

>  <PUBCHEM_ATOM_DEF_STEREO_COUNT>
0

>  <PUBCHEM_ATOM_UDEF_STEREO_COUNT>
0

>  <PUBCHEM_BOND_DEF_STEREO_COUNT>
0

>  <PUBCHEM_BOND_UDEF_STEREO_COUNT>
0

>  <PUBCHEM_ISOTOPIC_ATOM_COUNT>
0

>  <PUBCHEM_COMPONENT_COUNT>
1

>  <PUBCHEM_CACTVS_TAUTO_COUNT>
9

>  <PUBCHEM_CONFORMER_ID>
011D91B100000002

>  <PUBCHEM_MMFF94_ENERGY>
37.035

>  <PUBCHEM_FEATURE_SELFOVERLAP>
20.297

>  <PUBCHEM_SHAPE_FINGERPRINT>
10130415 120 18409161108689105090
10219947 1 18334016090253216141
11062470 55 18334858320502571529
12032990 46 18411426098157783271
13380535 76 18341894069707887527
14325111 11 18410575110453988205
15775835 57 18409452522214987116
16945 1 17775010101999066227
19026448 4 16515683346992961111
193761 8 17619913855199926211
20645476 183 17970083316416938886
23235685 24 18412822490936223461
23402539 116 18060125523070400917
23402655 69 18199174111118192541
23463225 33 18409164377143574706
23552423 10 18047188837067609532
2748010 2 17981884456116131717
369184 2 18186798106138867866
5084963 1 18411979122731557256
528886 8 18341609334718714667
53655031 270 18340485560730993419

>  <PUBCHEM_SHAPE_MULTIPOLES>
210.54
5.8
1.38
0.64
1.61
0.08
0.01
-0.71
0.42
-0.27
-0.06
-0.11
0.02
-0.31

>  <PUBCHEM_SHAPE_SELFOVERLAP>
431.275

>  <PUBCHEM_SHAPE_VOLUME>
121.3

>  <PUBCHEM_COORDINATE_TYPE>
2
5
10

$$$$
