18986587
 OpenBabel01182520543D

 23 23  0  0  0  0  0  0  0  0999 V2000
   -3.1550   -0.2916    0.0739 S   0  0  0  0  0  0  0  0  0  0  0  0
   -4.4715   -0.0260   -0.4756 O   0  0  0  0  0  0  0  0  0  0  0  0
   -2.6225   -1.6395    0.0925 O   0  0  0  0  0  0  0  0  0  0  0  0
    4.2507    0.6466    0.3985 O   0  0  0  0  0  0  0  0  0  0  0  0
   -2.0353    0.8029   -0.6431 N   0  0  0  0  0  0  0  0  0  0  0  0
   -0.2333   -0.7133   -0.4895 N   0  0  0  0  0  0  0  0  0  0  0  0
    3.8003   -1.5815    0.0959 N   0  0  0  0  0  0  0  0  0  0  0  0
   -0.6411    0.5745   -0.4348 C   0  0  0  0  0  0  0  0  0  0  0  0
    0.2035    1.6458   -0.1930 C   0  0  0  0  0  0  0  0  0  0  0  0
   -3.1615    0.3159    1.7458 C   0  0  0  0  0  0  0  0  0  0  0  0
    2.0112    0.0664   -0.0435 C   0  0  0  0  0  0  0  0  0  0  0  0
    1.5536    1.3784    0.0054 C   0  0  0  0  0  0  0  0  0  0  0  0
    1.0856   -0.9343   -0.2917 C   0  0  0  0  0  0  0  0  0  0  0  0
    3.4153   -0.2445    0.1591 C   0  0  0  0  0  0  0  0  0  0  0  0
   -2.3187    1.7903   -0.6896 H   0  0  0  0  0  0  0  0  0  0  0  0
   -0.1638    2.6659   -0.1560 H   0  0  0  0  0  0  0  0  0  0  0  0
   -3.8844   -0.2731    2.3148 H   0  0  0  0  0  0  0  0  0  0  0  0
   -2.1664    0.1933    2.1768 H   0  0  0  0  0  0  0  0  0  0  0  0
   -3.4617    1.3653    1.7414 H   0  0  0  0  0  0  0  0  0  0  0  0
    2.2302    2.2069    0.1961 H   0  0  0  0  0  0  0  0  0  0  0  0
    1.3316   -1.9870   -0.3501 H   0  0  0  0  0  0  0  0  0  0  0  0
    3.1844   -2.3632   -0.0882 H   0  0  0  0  0  0  0  0  0  0  0  0
    4.7746   -1.8277    0.2406 H   0  0  0  0  0  0  0  0  0  0  0  0
  1  2  2  0  0  0  0
  1  3  2  0  0  0  0
  1  5  1  0  0  0  0
  1 10  1  0  0  0  0
  4 14  2  0  0  0  0
  5  8  1  0  0  0  0
  5 15  1  0  0  0  0
  6  8  2  0  0  0  0
  6 13  1  0  0  0  0
  7 14  1  0  0  0  0
  7 22  1  0  0  0  0
  7 23  1  0  0  0  0
  8  9  1  0  0  0  0
  9 12  2  0  0  0  0
  9 16  1  0  0  0  0
 10 17  1  0  0  0  0
 10 18  1  0  0  0  0
 10 19  1  0  0  0  0
 11 12  1  0  0  0  0
 11 13  2  0  0  0  0
 11 14  1  0  0  0  0
 12 20  1  0  0  0  0
 13 21  1  0  0  0  0
M  END
>  <PUBCHEM_COMPOUND_CID>
18986587

>  <PUBCHEM_CONFORMER_RMSD>
0.6

>  <PUBCHEM_CONFORMER_DIVERSEORDER>
1
14
10
15
21
18
20
5
11
22
6
17
12
13
3
16
9
2
7
19
8
4

>  <PUBCHEM_MMFF94_PARTIAL_CHARGES>
20
1 1.33
10 0.11
11 0.09
12 -0.15
13 0.16
14 0.54
15 0.42
16 0.15
2 -0.65
20 0.15
21 0.15
22 0.37
23 0.37
3 -0.65
4 -0.57
5 -0.76
6 -0.62
7 -0.8
8 0.51
9 -0.15

>  <PUBCHEM_EFFECTIVE_ROTOR_COUNT>
3

>  <PUBCHEM_PHARMACOPHORE_FEATURES>
7
1 2 acceptor
1 3 acceptor
1 4 acceptor
1 5 donor
1 6 acceptor
1 7 donor
6 6 8 9 11 12 13 rings

>  <PUBCHEM_HEAVY_ATOM_COUNT>
14

>  <PUBCHEM_ATOM_DEF_STEREO_COUNT>
0

>  <PUBCHEM_ATOM_UDEF_STEREO_COUNT>
0

>  <PUBCHEM_BOND_DEF_STEREO_COUNT>
0

>  <PUBCHEM_BOND_UDEF_STEREO_COUNT>
0

>  <PUBCHEM_ISOTOPIC_ATOM_COUNT>
0

>  <PUBCHEM_COMPONENT_COUNT>
1

>  <PUBCHEM_CACTVS_TAUTO_COUNT>
7

>  <PUBCHEM_CONFORMER_ID>
0121B65B00000001

>  <PUBCHEM_MMFF94_ENERGY>
37.6253

>  <PUBCHEM_FEATURE_SELFOVERLAP>
35.55

>  <PUBCHEM_SHAPE_FINGERPRINT>
10219947 1 18413952780278543684
11132069 177 18408601478613677434
11543360 7 15140976053502399606
12032990 46 18410012096492860486
12251169 10 18341901813570319307
124424 183 18040713667189323053
12932764 1 12540970854513139909
13296908 3 18334289825883469260
13705890 14 14851607687216272224
14144814 61 18343023289296954051
14252887 29 18412551994033292346
15375462 478 17775568649959337633
16945 1 18410583872187421669
17844478 74 18187364307393296380
200 152 17989196071687593807
20201158 50 18335138683130296779
20279233 1 18260268551275539831
20281407 28 18259706700575166440
20281475 54 18335709355302976094
20645477 70 18334288764657555031
20871998 22 18270970020591845342
21119208 17 13262394466701775841
21501925 9 18410570708207611308
22485316 2 18333445452144798154
23402539 116 16200143292984238973
23463225 33 18410012143605573516
23557571 272 17167853132969817404
23559900 14 16515405179658234528
2748010 2 18052255094617148724
8809292 202 18114184163559998395

>  <PUBCHEM_SHAPE_MULTIPOLES>
259.41
7.55
1.46
0.91
0.08
0.03
0.35
1.52
1.27
-0.49
-0.06
0.8
-0.1
-0.03

>  <PUBCHEM_SHAPE_SELFOVERLAP>
524.066

>  <PUBCHEM_SHAPE_VOLUME>
153.6

>  <PUBCHEM_COORDINATE_TYPE>
2
5
10

$$$$
