20207438
 OpenBabel01182520543D

 23 23  0  0  0  0  0  0  0  0999 V2000
    5.2432   -0.6917   -0.0132 O   0  0  0  0  0  0  0  0  0  0  0  0
   -1.1092   -0.5935    0.0018 N   0  0  0  0  0  0  0  0  0  0  0  0
    0.7475    0.8996    0.0025 N   0  0  0  0  0  0  0  0  0  0  0  0
    4.8600    1.5691    0.0023 N   0  0  0  0  0  0  0  0  0  0  0  0
   -4.9951    2.2212   -0.0033 N   0  0  0  0  0  0  0  0  0  0  0  0
   -4.4016   -2.2178   -0.0001 N   0  0  0  0  0  0  0  0  0  0  0  0
    2.9931    0.0036    0.0016 C   0  0  0  0  0  0  0  0  0  0  0  0
    0.2904   -0.3728    0.0026 C   0  0  0  0  0  0  0  0  0  0  0  0
    2.4846   -1.2906    0.0019 C   0  0  0  0  0  0  0  0  0  0  0  0
    1.1086   -1.4909    0.0024 C   0  0  0  0  0  0  0  0  0  0  0  0
    2.0905    1.0549    0.0020 C   0  0  0  0  0  0  0  0  0  0  0  0
    4.4250    0.2460    0.0025 C   0  0  0  0  0  0  0  0  0  0  0  0
   -2.0804    0.3316    0.0005 C   0  0  0  0  0  0  0  0  0  0  0  0
   -3.4143    0.1735   -0.0008 C   0  0  0  0  0  0  0  0  0  0  0  0
   -4.2848    1.3033   -0.0022 C   0  0  0  0  0  0  0  0  0  0  0  0
   -3.9575   -1.1455   -0.0005 C   0  0  0  0  0  0  0  0  0  0  0  0
    3.1413   -2.1562    0.0019 H   0  0  0  0  0  0  0  0  0  0  0  0
    0.7068   -2.4989    0.0024 H   0  0  0  0  0  0  0  0  0  0  0  0
    2.3757    2.0993    0.0017 H   0  0  0  0  0  0  0  0  0  0  0  0
   -1.3991   -1.5654    0.0026 H   0  0  0  0  0  0  0  0  0  0  0  0
   -1.6964    1.3496    0.0002 H   0  0  0  0  0  0  0  0  0  0  0  0
    4.2618    2.3855    0.0095 H   0  0  0  0  0  0  0  0  0  0  0  0
    5.8557    1.7671   -0.0040 H   0  0  0  0  0  0  0  0  0  0  0  0
  1 12  2  0  0  0  0
  2  8  1  0  0  0  0
  2 13  1  0  0  0  0
  2 20  1  0  0  0  0
  3  8  2  0  0  0  0
  3 11  1  0  0  0  0
  4 12  1  0  0  0  0
  4 22  1  0  0  0  0
  4 23  1  0  0  0  0
  5 15  3  0  0  0  0
  6 16  3  0  0  0  0
  7  9  1  0  0  0  0
  7 11  2  0  0  0  0
  7 12  1  0  0  0  0
  8 10  1  0  0  0  0
  9 10  2  0  0  0  0
  9 17  1  0  0  0  0
 10 18  1  0  0  0  0
 11 19  1  0  0  0  0
 13 14  2  0  0  0  0
 13 21  1  0  0  0  0
 14 15  1  0  0  0  0
 14 16  1  0  0  0  0
M  END
>  <PUBCHEM_COMPOUND_CID>
20207438

>  <PUBCHEM_CONFORMER_RMSD>
0.6

>  <PUBCHEM_CONFORMER_DIVERSEORDER>
1
27
49
42
10
28
8
12
16
19
18
32
6
33
26
50
2
7
14
51
29
13
15
48
4
11
45
5
31
30
41
3
34
43
9
20
21
44
25
40
17
24
23
46
22
39
47
37
36
35
38

>  <PUBCHEM_MMFF94_PARTIAL_CHARGES>
23
1 -0.57
10 -0.15
11 0.16
12 0.54
13 -0.05
14 0.13
15 0.49
16 0.49
17 0.15
18 0.15
19 0.15
2 -0.6
20 0.4
21 0.15
22 0.37
23 0.37
3 -0.62
4 -0.8
5 -0.56
6 -0.56
7 0.09
8 0.41
9 -0.15

>  <PUBCHEM_EFFECTIVE_ROTOR_COUNT>
3

>  <PUBCHEM_PHARMACOPHORE_FEATURES>
7
1 1 acceptor
1 2 donor
1 4 donor
1 5 acceptor
1 6 acceptor
3 2 3 8 cation
6 3 7 8 9 10 11 rings

>  <PUBCHEM_HEAVY_ATOM_COUNT>
16

>  <PUBCHEM_ATOM_DEF_STEREO_COUNT>
0

>  <PUBCHEM_ATOM_UDEF_STEREO_COUNT>
0

>  <PUBCHEM_BOND_DEF_STEREO_COUNT>
0

>  <PUBCHEM_BOND_UDEF_STEREO_COUNT>
0

>  <PUBCHEM_ISOTOPIC_ATOM_COUNT>
0

>  <PUBCHEM_COMPONENT_COUNT>
1

>  <PUBCHEM_CACTVS_TAUTO_COUNT>
9

>  <PUBCHEM_CONFORMER_ID>
0134574E00000001

>  <PUBCHEM_MMFF94_ENERGY>
41.0518

>  <PUBCHEM_FEATURE_SELFOVERLAP>
35.522

>  <PUBCHEM_SHAPE_FINGERPRINT>
10014705 185 18334010563163303061
10912923 1 17894625972206285648
12500047 106 18412258416176156715
13167823 11 18409444803969274378
13214271 11 18341891892417444349
13675066 3 18131629006424358290
13760787 19 18335700512139542955
15196674 1 18410855473266310240
17834072 33 18412545448439660862
17844677 252 18340495542229902744
200 152 18273213131866122947
20645477 56 18336547123746124549
20645477 70 17417250905659012191
21267235 1 18338243751264796791
21426921 1 18411981386765007999
21618674 54 18411135814651697375
21709351 56 18408037429043114365
22485316 2 18335701615745567371
23402539 116 18334572442920541092
23402655 69 18342736291124182621
23557571 272 18343026596959764309
23559900 14 18270680840539238014
2916195 48 18200586025244029528
300161 21 18334850594035695669
3545911 37 18412827954535693537
4214541 1 18410573977068022657
4990 188 18202291294716585326
5104073 3 18408884031521568298
77779 3 18411138034727445447

>  <PUBCHEM_SHAPE_MULTIPOLES>
298.5
11.81
1.89
0.58
0.71
0.01
0
-2.47
-0.02
1.86
0
0.01
0.01
0.01

>  <PUBCHEM_SHAPE_SELFOVERLAP>
624.903

>  <PUBCHEM_SHAPE_VOLUME>
162.2

>  <PUBCHEM_COORDINATE_TYPE>
2
5
10

$$$$
