20215042
 OpenBabel01182520543D

 29 29  0  0  0  0  0  0  0  0999 V2000
   -0.7330   -2.1155    0.5598 O   0  0  0  0  0  0  0  0  0  0  0  0
   -1.4148   -0.4039   -0.8499 N   0  0  0  0  0  0  0  0  0  0  0  0
    2.5978    0.8349   -1.0476 N   0  0  0  0  0  0  0  0  0  0  0  0
    4.6660    1.1683    0.0872 N   0  0  0  0  0  0  0  0  0  0  0  0
   -3.6912   -0.2252    0.0711 C   0  0  0  0  0  0  0  0  0  0  0  0
   -2.7794   -0.8308   -0.9909 C   0  0  0  0  0  0  0  0  0  0  0  0
   -3.7349    1.3031    0.0064 C   0  0  0  0  0  0  0  0  0  0  0  0
   -4.6969    1.8751    1.0360 C   0  0  0  0  0  0  0  0  0  0  0  0
   -0.4888   -1.0920   -0.0739 C   0  0  0  0  0  0  0  0  0  0  0  0
    0.8751   -0.5066   -0.0094 C   0  0  0  0  0  0  0  0  0  0  0  0
    1.6964   -0.7225    1.0916 C   0  0  0  0  0  0  0  0  0  0  0  0
    1.3684    0.2726   -1.0437 C   0  0  0  0  0  0  0  0  0  0  0  0
    2.9679   -0.1606    1.1242 C   0  0  0  0  0  0  0  0  0  0  0  0
    3.3676    0.6030    0.0393 C   0  0  0  0  0  0  0  0  0  0  0  0
   -4.7031   -0.6254   -0.0655 H   0  0  0  0  0  0  0  0  0  0  0  0
   -3.3545   -0.5364    1.0677 H   0  0  0  0  0  0  0  0  0  0  0  0
   -2.8223   -1.9239   -0.9316 H   0  0  0  0  0  0  0  0  0  0  0  0
   -3.1116   -0.5368   -1.9924 H   0  0  0  0  0  0  0  0  0  0  0  0
   -4.0472    1.6242   -0.9942 H   0  0  0  0  0  0  0  0  0  0  0  0
   -2.7381    1.7214    0.1861 H   0  0  0  0  0  0  0  0  0  0  0  0
   -1.1596    0.4674   -1.3024 H   0  0  0  0  0  0  0  0  0  0  0  0
   -4.3954    1.5975    2.0510 H   0  0  0  0  0  0  0  0  0  0  0  0
   -4.7136    2.9677    0.9732 H   0  0  0  0  0  0  0  0  0  0  0  0
   -5.7150    1.5099    0.8674 H   0  0  0  0  0  0  0  0  0  0  0  0
    1.3610   -1.3218    1.9336 H   0  0  0  0  0  0  0  0  0  0  0  0
    0.8058    0.4681   -1.9505 H   0  0  0  0  0  0  0  0  0  0  0  0
    3.6143   -0.3245    1.9803 H   0  0  0  0  0  0  0  0  0  0  0  0
    4.9516    1.7305   -0.7050 H   0  0  0  0  0  0  0  0  0  0  0  0
    5.0675    1.3772    0.9931 H   0  0  0  0  0  0  0  0  0  0  0  0
  1  9  2  0  0  0  0
  2  6  1  0  0  0  0
  2  9  1  0  0  0  0
  2 21  1  0  0  0  0
  3 12  1  0  0  0  0
  3 14  2  0  0  0  0
  4 14  1  0  0  0  0
  4 28  1  0  0  0  0
  4 29  1  0  0  0  0
  5  6  1  0  0  0  0
  5  7  1  0  0  0  0
  5 15  1  0  0  0  0
  5 16  1  0  0  0  0
  6 17  1  0  0  0  0
  6 18  1  0  0  0  0
  7  8  1  0  0  0  0
  7 19  1  0  0  0  0
  7 20  1  0  0  0  0
  8 22  1  0  0  0  0
  8 23  1  0  0  0  0
  8 24  1  0  0  0  0
  9 10  1  0  0  0  0
 10 11  1  0  0  0  0
 10 12  2  0  0  0  0
 11 13  2  0  0  0  0
 11 25  1  0  0  0  0
 12 26  1  0  0  0  0
 13 14  1  0  0  0  0
 13 27  1  0  0  0  0
M  END
>  <PUBCHEM_COMPOUND_CID>
20215042

>  <PUBCHEM_CONFORMER_RMSD>
0.6

>  <PUBCHEM_CONFORMER_DIVERSEORDER>
1
15
28
38
12
44
48
25
50
6
18
42
3
39
43
37
47
26
40
4
13
16
36
49
8
34
5
51
11
30
20
33
7
45
23
46
35
17
32
22
19
29
27
52
21
31
10
24
14
9
41
2

>  <PUBCHEM_MMFF94_PARTIAL_CHARGES>
17
1 -0.57
10 0.09
11 -0.15
12 0.16
13 -0.15
14 0.41
2 -0.73
21 0.37
25 0.15
26 0.15
27 0.15
28 0.4
29 0.4
3 -0.62
4 -0.9
6 0.3
9 0.54

>  <PUBCHEM_EFFECTIVE_ROTOR_COUNT>
5

>  <PUBCHEM_PHARMACOPHORE_FEATURES>
6
1 1 acceptor
1 2 donor
1 4 donor
1 8 hydrophobe
3 3 4 14 cation
6 3 10 11 12 13 14 rings

>  <PUBCHEM_HEAVY_ATOM_COUNT>
14

>  <PUBCHEM_ATOM_DEF_STEREO_COUNT>
0

>  <PUBCHEM_ATOM_UDEF_STEREO_COUNT>
0

>  <PUBCHEM_BOND_DEF_STEREO_COUNT>
0

>  <PUBCHEM_BOND_UDEF_STEREO_COUNT>
0

>  <PUBCHEM_ISOTOPIC_ATOM_COUNT>
0

>  <PUBCHEM_COMPONENT_COUNT>
1

>  <PUBCHEM_CACTVS_TAUTO_COUNT>
5

>  <PUBCHEM_CONFORMER_ID>
0134750200000001

>  <PUBCHEM_MMFF94_ENERGY>
29.4838

>  <PUBCHEM_FEATURE_SELFOVERLAP>
30.446

>  <PUBCHEM_SHAPE_FINGERPRINT>
10354089 29 17967256390174740185
10465860 228 18338235934302836427
10498660 4 17560516189006864233
10980938 120 17458615723012732626
11046707 91 8142087559088742233
12251169 10 17240206534348129803
12346645 44 18409727344493169007
12500047 106 17417806283627210494
14123260 362 18273219685965124369
14252887 29 16370718206548673400
15209294 21 18409444786857697709
15775835 57 18341612586225300545
17844478 74 15574701487405664894
18186145 218 18334573503846288511
19107657 162 13045944590609876705
19107657 9 18409168805275839029
193927 3 10809636874417421081
20233049 118 18272086106408999120
20645477 56 17489590086796194591
20645477 70 16734360786303876627
20711983 171 18272082794804207583
20871999 31 16558739140521947341
212847 35 18059572434425227313
21713013 43 14620496974672171045
22485316 2 8862948277090051031
22926399 65 18060137643631711937
23402539 116 18060694001016120596
23402655 69 13470423144603244307
23500284 214 18408606980471935067
23557571 272 17203327853590514013
26918003 58 14418128517936978245
2748010 2 17099430455717201814
276578 36 18261112945835114610
3268164 11 17631717353712359165
4028521 119 17275386474078367393
5104073 3 17677605544602010848
633830 44 18412261701283163903
76465 3 9439407908470346220

>  <PUBCHEM_SHAPE_MULTIPOLES>
267.3
8.81
1.61
1.14
3.4
0.04
-0.02
5.72
-1.24
1.29
-0.29
-0.22
0
-1.01

>  <PUBCHEM_SHAPE_SELFOVERLAP>
538.263

>  <PUBCHEM_SHAPE_VOLUME>
155.8

>  <PUBCHEM_COORDINATE_TYPE>
2
5
10

$$$$
