20215012
 OpenBabel01182520543D

 20 20  0  0  0  0  0  0  0  0999 V2000
    2.2085    1.4444   -0.4040 O   0  0  0  0  0  0  0  0  0  0  0  0
    2.5197   -0.7632    0.2333 N   0  0  0  0  0  0  0  0  0  0  0  0
   -1.9165    1.1112    0.2334 N   0  0  0  0  0  0  0  0  0  0  0  0
   -3.8361   -0.2919    0.0814 N   0  0  0  0  0  0  0  0  0  0  0  0
    0.2833    0.1514   -0.0572 C   0  0  0  0  0  0  0  0  0  0  0  0
   -0.2821   -1.1034   -0.2546 C   0  0  0  0  0  0  0  0  0  0  0  0
    1.7228    0.3391   -0.1009 C   0  0  0  0  0  0  0  0  0  0  0  0
   -0.5698    1.2170    0.1810 C   0  0  0  0  0  0  0  0  0  0  0  0
   -1.6639   -1.2523   -0.2084 C   0  0  0  0  0  0  0  0  0  0  0  0
   -2.4299   -0.1239    0.0367 C   0  0  0  0  0  0  0  0  0  0  0  0
    3.9642   -0.7282    0.2593 C   0  0  0  0  0  0  0  0  0  0  0  0
    0.3170   -1.9823   -0.4733 H   0  0  0  0  0  0  0  0  0  0  0  0
   -0.1949    2.2224    0.3471 H   0  0  0  0  0  0  0  0  0  0  0  0
   -2.1129   -2.2275   -0.3666 H   0  0  0  0  0  0  0  0  0  0  0  0
    2.0857   -1.6223    0.5540 H   0  0  0  0  0  0  0  0  0  0  0  0
    4.3399   -1.7241    0.0133 H   0  0  0  0  0  0  0  0  0  0  0  0
    4.2826   -0.4524    1.2676 H   0  0  0  0  0  0  0  0  0  0  0  0
    4.3431    0.0038   -0.4582 H   0  0  0  0  0  0  0  0  0  0  0  0
   -4.2491   -1.0425   -0.4584 H   0  0  0  0  0  0  0  0  0  0  0  0
   -4.3923    0.5362    0.2549 H   0  0  0  0  0  0  0  0  0  0  0  0
  1  7  2  0  0  0  0
  2  7  1  0  0  0  0
  2 11  1  0  0  0  0
  2 15  1  0  0  0  0
  3  8  1  0  0  0  0
  3 10  2  0  0  0  0
  4 10  1  0  0  0  0
  4 19  1  0  0  0  0
  4 20  1  0  0  0  0
  5  6  1  0  0  0  0
  5  7  1  0  0  0  0
  5  8  2  0  0  0  0
  6  9  2  0  0  0  0
  6 12  1  0  0  0  0
  8 13  1  0  0  0  0
  9 10  1  0  0  0  0
  9 14  1  0  0  0  0
 11 16  1  0  0  0  0
 11 17  1  0  0  0  0
 11 18  1  0  0  0  0
M  END
>  <PUBCHEM_COMPOUND_CID>
20215012

>  <PUBCHEM_CONFORMER_RMSD>
0.4

>  <PUBCHEM_CONFORMER_DIVERSEORDER>
2
5
3
6
1
4

>  <PUBCHEM_MMFF94_PARTIAL_CHARGES>
17
1 -0.57
10 0.41
11 0.3
12 0.15
13 0.15
14 0.15
15 0.37
19 0.4
2 -0.73
20 0.4
3 -0.62
4 -0.9
5 0.09
6 -0.15
7 0.54
8 0.16
9 -0.15

>  <PUBCHEM_EFFECTIVE_ROTOR_COUNT>
2

>  <PUBCHEM_PHARMACOPHORE_FEATURES>
5
1 1 acceptor
1 2 donor
1 4 donor
3 3 4 10 cation
6 3 5 6 8 9 10 rings

>  <PUBCHEM_HEAVY_ATOM_COUNT>
11

>  <PUBCHEM_ATOM_DEF_STEREO_COUNT>
0

>  <PUBCHEM_ATOM_UDEF_STEREO_COUNT>
0

>  <PUBCHEM_BOND_DEF_STEREO_COUNT>
0

>  <PUBCHEM_BOND_UDEF_STEREO_COUNT>
0

>  <PUBCHEM_ISOTOPIC_ATOM_COUNT>
0

>  <PUBCHEM_COMPONENT_COUNT>
1

>  <PUBCHEM_CACTVS_TAUTO_COUNT>
5

>  <PUBCHEM_CONFORMER_ID>
013474E400000002

>  <PUBCHEM_MMFF94_ENERGY>
32.5003

>  <PUBCHEM_FEATURE_SELFOVERLAP>
25.371

>  <PUBCHEM_SHAPE_FINGERPRINT>
10130415 120 18411981372919919568
11062470 55 13254795737310040659
12032990 46 18410017654106915707
13690532 89 18408601431411365082
14144814 61 18409729526241493026
14325111 11 18410576201560486101
16945 1 18341339915604427591
20645476 183 17970365907768609494
20871998 184 17988361571641412614
23402539 116 17988631979009244509
23402655 69 18126268767945854301
23463225 33 18410293592664936582
23552423 10 18261673795707575782
369184 2 18413106190626898129
5084963 1 18411135818413525056
7364860 26 18270682086359146832

>  <PUBCHEM_SHAPE_MULTIPOLES>
205.56
5.6
1.37
0.63
1.81
0.15
-0.01
-1.1
0.49
0.05
-0.06
0.06
0
-0.29

>  <PUBCHEM_SHAPE_SELFOVERLAP>
424.28

>  <PUBCHEM_SHAPE_VOLUME>
117.9

>  <PUBCHEM_COORDINATE_TYPE>
2
5
10

$$$$
