20215021
 OpenBabel01182520543D

 35 35  0  0  0  0  0  0  0  0999 V2000
   -0.9009   -2.1092    0.0227 O   0  0  0  0  0  0  0  0  0  0  0  0
   -1.5848    0.1268    0.0016 N   0  0  0  0  0  0  0  0  0  0  0  0
    2.8094   -0.0790   -1.2106 N   0  0  0  0  0  0  0  0  0  0  0  0
    4.8172    0.4343   -0.0349 N   0  0  0  0  0  0  0  0  0  0  0  0
   -2.9954   -0.1946   -0.0261 C   0  0  0  0  0  0  0  0  0  0  0  0
   -1.2513    1.5536    0.0050 C   0  0  0  0  0  0  0  0  0  0  0  0
   -3.3559   -0.9797    1.2280 C   0  0  0  0  0  0  0  0  0  0  0  0
   -3.3118   -0.9876   -1.2875 C   0  0  0  0  0  0  0  0  0  0  0  0
   -1.8403    2.2037    1.2499 C   0  0  0  0  0  0  0  0  0  0  0  0
   -1.7840    2.2036   -1.2654 C   0  0  0  0  0  0  0  0  0  0  0  0
   -0.6366   -0.9075    0.0242 C   0  0  0  0  0  0  0  0  0  0  0  0
    0.7920   -0.5549    0.0338 C   0  0  0  0  0  0  0  0  0  0  0  0
    1.4765   -0.3678    1.2295 C   0  0  0  0  0  0  0  0  0  0  0  0
    1.4976   -0.4002   -1.1486 C   0  0  0  0  0  0  0  0  0  0  0  0
    2.8268   -0.0365    1.2067 C   0  0  0  0  0  0  0  0  0  0  0  0
    3.4415    0.0951   -0.0283 C   0  0  0  0  0  0  0  0  0  0  0  0
   -3.6132    0.7065   -0.0406 H   0  0  0  0  0  0  0  0  0  0  0  0
   -0.1693    1.6996    0.0292 H   0  0  0  0  0  0  0  0  0  0  0  0
   -2.9308   -1.9867    1.2554 H   0  0  0  0  0  0  0  0  0  0  0  0
   -3.0311   -0.4555    2.1333 H   0  0  0  0  0  0  0  0  0  0  0  0
   -4.4436   -1.0995    1.2912 H   0  0  0  0  0  0  0  0  0  0  0  0
   -2.8823   -1.9931   -1.2948 H   0  0  0  0  0  0  0  0  0  0  0  0
   -2.9569   -0.4667   -2.1834 H   0  0  0  0  0  0  0  0  0  0  0  0
   -4.3964   -1.1108   -1.3871 H   0  0  0  0  0  0  0  0  0  0  0  0
   -2.9338    2.2323    1.2568 H   0  0  0  0  0  0  0  0  0  0  0  0
   -1.5124    1.6814    2.1556 H   0  0  0  0  0  0  0  0  0  0  0  0
   -1.4974    3.2418    1.3272 H   0  0  0  0  0  0  0  0  0  0  0  0
   -2.8762    2.2293   -1.3212 H   0  0  0  0  0  0  0  0  0  0  0  0
   -1.4151    1.6808   -2.1550 H   0  0  0  0  0  0  0  0  0  0  0  0
   -1.4394    3.2422   -1.3273 H   0  0  0  0  0  0  0  0  0  0  0  0
    0.9665   -0.4772    2.1827 H   0  0  0  0  0  0  0  0  0  0  0  0
    1.0168   -0.5324   -2.1131 H   0  0  0  0  0  0  0  0  0  0  0  0
    3.3674    0.1108    2.1359 H   0  0  0  0  0  0  0  0  0  0  0  0
    5.1856    0.9684    0.7425 H   0  0  0  0  0  0  0  0  0  0  0  0
    5.2608    0.5358   -0.9394 H   0  0  0  0  0  0  0  0  0  0  0  0
  1 11  2  0  0  0  0
  2  5  1  0  0  0  0
  2  6  1  0  0  0  0
  2 11  1  0  0  0  0
  3 14  1  0  0  0  0
  3 16  2  0  0  0  0
  4 16  1  0  0  0  0
  4 34  1  0  0  0  0
  4 35  1  0  0  0  0
  5  7  1  0  0  0  0
  5  8  1  0  0  0  0
  5 17  1  0  0  0  0
  6  9  1  0  0  0  0
  6 10  1  0  0  0  0
  6 18  1  0  0  0  0
  7 19  1  0  0  0  0
  7 20  1  0  0  0  0
  7 21  1  0  0  0  0
  8 22  1  0  0  0  0
  8 23  1  0  0  0  0
  8 24  1  0  0  0  0
  9 25  1  0  0  0  0
  9 26  1  0  0  0  0
  9 27  1  0  0  0  0
 10 28  1  0  0  0  0
 10 29  1  0  0  0  0
 10 30  1  0  0  0  0
 11 12  1  0  0  0  0
 12 13  1  0  0  0  0
 12 14  2  0  0  0  0
 13 15  2  0  0  0  0
 13 31  1  0  0  0  0
 14 32  1  0  0  0  0
 15 16  1  0  0  0  0
 15 33  1  0  0  0  0
M  END
>  <PUBCHEM_COMPOUND_CID>
20215021

>  <PUBCHEM_CONFORMER_RMSD>
0.6

>  <PUBCHEM_CONFORMER_DIVERSEORDER>
1
14
13
18
6
8
12
17
11
5
9
7
15
10
19
20
16
2
3
4

>  <PUBCHEM_MMFF94_PARTIAL_CHARGES>
17
1 -0.57
11 0.54
12 0.09
13 -0.15
14 0.16
15 -0.15
16 0.41
2 -0.66
3 -0.62
31 0.15
32 0.15
33 0.15
34 0.4
35 0.4
4 -0.9
5 0.3
6 0.3

>  <PUBCHEM_EFFECTIVE_ROTOR_COUNT>
4

>  <PUBCHEM_PHARMACOPHORE_FEATURES>
6
1 1 acceptor
1 4 donor
3 3 4 16 cation
3 5 7 8 hydrophobe
3 6 9 10 hydrophobe
6 3 12 13 14 15 16 rings

>  <PUBCHEM_HEAVY_ATOM_COUNT>
16

>  <PUBCHEM_ATOM_DEF_STEREO_COUNT>
0

>  <PUBCHEM_ATOM_UDEF_STEREO_COUNT>
0

>  <PUBCHEM_BOND_DEF_STEREO_COUNT>
0

>  <PUBCHEM_BOND_UDEF_STEREO_COUNT>
0

>  <PUBCHEM_ISOTOPIC_ATOM_COUNT>
0

>  <PUBCHEM_COMPONENT_COUNT>
1

>  <PUBCHEM_CACTVS_TAUTO_COUNT>
3

>  <PUBCHEM_CONFORMER_ID>
013474ED00000001

>  <PUBCHEM_MMFF94_ENERGY>
53.7626

>  <PUBCHEM_FEATURE_SELFOVERLAP>
30.446

>  <PUBCHEM_SHAPE_FINGERPRINT>
11132069 177 18130782391066180227
124424 183 12035445051952411676
12670546 56 18336532860090942298
12932764 1 17917989451740610422
13538477 17 17968088776517419386
13581323 91 18335137609436043082
13764800 53 18200036114605622993
14142880 1 18338802195887448729
14144814 61 18040434369681975162
14614273 12 18190459368443543517
15219456 202 17774729649599053582
15775835 57 18114462241112147648
16945 1 18410009965825279539
17844478 74 17917999373093660097
18186145 218 16558747906286460434
200 152 16877942771559239547
20344682 1 17703790361607138574
20510252 161 18412265016902730401
20525323 117 18337108969381040041
21501502 16 18127690435361963362
21524375 3 17620759380058878761
22802520 49 17558843779790493220
2306618 200 17167857552422391541
23402539 116 18341887515323705662
23557571 272 18131069346262996093
23559900 14 18272088263020476398
2748010 2 18195533584240265375
3268164 11 18341604919350026900
3286 77 16271355434782318458
77492 1 17676205766845300642
81228 2 18412269445293528827

>  <PUBCHEM_SHAPE_MULTIPOLES>
308.46
6.64
1.85
1.38
4.94
0.88
0.01
-0.23
-0.08
-1.89
0
-0.29
0.16
-0.01

>  <PUBCHEM_SHAPE_SELFOVERLAP>
627.45

>  <PUBCHEM_SHAPE_VOLUME>
179.6

>  <PUBCHEM_COORDINATE_TYPE>
2
5
10

$$$$
