20215035
 OpenBabel01182520543D

 30 31  0  0  0  0  0  0  0  0999 V2000
    0.5934    2.4076    0.4976 O   0  0  0  0  0  0  0  0  0  0  0  0
    1.6169    0.4562   -0.2844 N   0  0  0  0  0  0  0  0  0  0  0  0
   -2.8459    0.1776   -1.1087 N   0  0  0  0  0  0  0  0  0  0  0  0
   -4.5917   -1.0465   -0.0454 N   0  0  0  0  0  0  0  0  0  0  0  0
    3.7228   -1.4991   -0.0076 C   0  0  0  0  0  0  0  0  0  0  0  0
    3.9086   -0.0538    0.4553 C   0  0  0  0  0  0  0  0  0  0  0  0
    2.2480   -1.9010    0.0199 C   0  0  0  0  0  0  0  0  0  0  0  0
    3.0172    0.8969   -0.3393 C   0  0  0  0  0  0  0  0  0  0  0  0
    1.3873   -0.9088   -0.7584 C   0  0  0  0  0  0  0  0  0  0  0  0
    0.5334    1.2371    0.1242 C   0  0  0  0  0  0  0  0  0  0  0  0
   -0.8038    0.6313    0.1032 C   0  0  0  0  0  0  0  0  0  0  0  0
   -1.3048   -0.0397    1.2133 C   0  0  0  0  0  0  0  0  0  0  0  0
   -1.6067    0.7112   -1.0232 C   0  0  0  0  0  0  0  0  0  0  0  0
   -2.5755   -0.6021    1.1637 C   0  0  0  0  0  0  0  0  0  0  0  0
   -3.2992   -0.4669   -0.0101 C   0  0  0  0  0  0  0  0  0  0  0  0
    4.1119   -1.6084   -1.0274 H   0  0  0  0  0  0  0  0  0  0  0  0
    4.3037   -2.1723    0.6325 H   0  0  0  0  0  0  0  0  0  0  0  0
    3.6569    0.0161    1.5210 H   0  0  0  0  0  0  0  0  0  0  0  0
    4.9581    0.2412    0.3488 H   0  0  0  0  0  0  0  0  0  0  0  0
    2.1305   -2.9064   -0.3995 H   0  0  0  0  0  0  0  0  0  0  0  0
    1.9055   -1.9408    1.0615 H   0  0  0  0  0  0  0  0  0  0  0  0
    3.0932    1.9132    0.0602 H   0  0  0  0  0  0  0  0  0  0  0  0
    3.3157    0.9252   -1.3935 H   0  0  0  0  0  0  0  0  0  0  0  0
    1.6670   -0.9265   -1.8194 H   0  0  0  0  0  0  0  0  0  0  0  0
    0.3514   -1.2429   -0.7102 H   0  0  0  0  0  0  0  0  0  0  0  0
   -0.7129   -0.1299    2.1202 H   0  0  0  0  0  0  0  0  0  0  0  0
   -1.2701    1.2218   -1.9204 H   0  0  0  0  0  0  0  0  0  0  0  0
   -2.9731   -1.1270    2.0263 H   0  0  0  0  0  0  0  0  0  0  0  0
   -4.7745   -1.8527    0.5394 H   0  0  0  0  0  0  0  0  0  0  0  0
   -5.1144   -0.9511   -0.9073 H   0  0  0  0  0  0  0  0  0  0  0  0
  1 10  2  0  0  0  0
  2  8  1  0  0  0  0
  2  9  1  0  0  0  0
  2 10  1  0  0  0  0
  3 13  1  0  0  0  0
  3 15  2  0  0  0  0
  4 15  1  0  0  0  0
  4 29  1  0  0  0  0
  4 30  1  0  0  0  0
  5  6  1  0  0  0  0
  5  7  1  0  0  0  0
  5 16  1  0  0  0  0
  5 17  1  0  0  0  0
  6  8  1  0  0  0  0
  6 18  1  0  0  0  0
  6 19  1  0  0  0  0
  7  9  1  0  0  0  0
  7 20  1  0  0  0  0
  7 21  1  0  0  0  0
  8 22  1  0  0  0  0
  8 23  1  0  0  0  0
  9 24  1  0  0  0  0
  9 25  1  0  0  0  0
 10 11  1  0  0  0  0
 11 12  1  0  0  0  0
 11 13  2  0  0  0  0
 12 14  2  0  0  0  0
 12 26  1  0  0  0  0
 13 27  1  0  0  0  0
 14 15  1  0  0  0  0
 14 28  1  0  0  0  0
M  END
>  <PUBCHEM_COMPOUND_CID>
20215035

>  <PUBCHEM_CONFORMER_RMSD>
0.6

>  <PUBCHEM_CONFORMER_DIVERSEORDER>
1
6
4
5
2
3
8
7

>  <PUBCHEM_MMFF94_PARTIAL_CHARGES>
17
1 -0.57
10 0.54
11 0.09
12 -0.15
13 0.16
14 -0.15
15 0.41
2 -0.66
26 0.15
27 0.15
28 0.15
29 0.4
3 -0.62
30 0.4
4 -0.9
8 0.3
9 0.3

>  <PUBCHEM_EFFECTIVE_ROTOR_COUNT>
3.2

>  <PUBCHEM_PHARMACOPHORE_FEATURES>
5
1 1 acceptor
1 4 donor
3 3 4 15 cation
6 2 5 6 7 8 9 rings
6 3 11 12 13 14 15 rings

>  <PUBCHEM_HEAVY_ATOM_COUNT>
15

>  <PUBCHEM_ATOM_DEF_STEREO_COUNT>
0

>  <PUBCHEM_ATOM_UDEF_STEREO_COUNT>
0

>  <PUBCHEM_BOND_DEF_STEREO_COUNT>
0

>  <PUBCHEM_BOND_UDEF_STEREO_COUNT>
0

>  <PUBCHEM_ISOTOPIC_ATOM_COUNT>
0

>  <PUBCHEM_COMPONENT_COUNT>
1

>  <PUBCHEM_CACTVS_TAUTO_COUNT>
3

>  <PUBCHEM_CONFORMER_ID>
013474FB00000001

>  <PUBCHEM_MMFF94_ENERGY>
43.1554

>  <PUBCHEM_FEATURE_SELFOVERLAP>
25.371

>  <PUBCHEM_SHAPE_FINGERPRINT>
10618630 7 18339083692190594742
11543360 7 16298683740936255014
11578080 2 17058334095336781753
12032990 46 18411983529405075622
12251169 10 13973962121131088131
13296908 3 18339079289775334878
13705890 14 17821447958829688700
14251717 144 18411701010382267682
14252887 29 17918002667528930366
14350558 41 18187372021217584142
14943859 89 12035453834701576562
15207287 21 18187363263579119546
15219456 202 18187363241998625325
15375462 189 18060132167374316631
16945 1 18340496663147736760
17834072 14 18334287635323502306
18186145 218 17604144831096073692
19862831 5 13767926831777444251
200 152 18341609300147992615
20201158 50 18260270741461064490
20279233 1 18040157322568743882
20281475 54 18335993037929670211
20361792 2 18202280286193237532
204376 136 18124592235645502568
20645477 70 18335419088370104407
20671657 53 18041000579668522550
21061003 4 18341898484675584128
21119208 17 14634866457290345131
21296965 67 18341330020036830737
21501925 9 18410854352385315178
22485316 2 18412543223683576711
2255824 54 18128539464586863308
23402539 116 17168131334785549469
23403322 49 18188489056301852466
23526113 38 18113056051507472424
23557571 272 17313097557852084324
23559900 14 17968930886939947370
3286 77 18410291458356243461
57812782 119 17822010904330036434
581208 293 18411702101752080946
76465 3 18334847329539252147
77492 1 17346601901848311301
81228 2 18050016497443773480
9709674 26 18186242809706723194
9981440 41 13482837893928041292

>  <PUBCHEM_SHAPE_MULTIPOLES>
287.88
7.19
1.71
1.02
1.08
0.23
-0.05
-3.04
0.07
-0.99
-0.1
0.53
0.01
0.27

>  <PUBCHEM_SHAPE_SELFOVERLAP>
601.754

>  <PUBCHEM_SHAPE_VOLUME>
161

>  <PUBCHEM_COORDINATE_TYPE>
2
5
10

$$$$
