20215045
 OpenBabel01182520543D

 27 28  0  0  0  0  0  0  0  0999 V2000
   -0.1813   -1.8804    0.2825 O   0  0  0  0  0  0  0  0  0  0  0  0
   -0.8365    0.3492   -0.0748 N   0  0  0  0  0  0  0  0  0  0  0  0
    3.8087   -0.9055   -0.4045 N   0  0  0  0  0  0  0  0  0  0  0  0
    5.5300    0.7105   -0.0840 N   0  0  0  0  0  0  0  0  0  0  0  0
   -2.2300    0.2815   -0.0596 C   0  0  0  0  0  0  0  0  0  0  0  0
    1.5124   -0.3026    0.0524 C   0  0  0  0  0  0  0  0  0  0  0  0
    0.0800   -0.6976    0.0911 C   0  0  0  0  0  0  0  0  0  0  0  0
    1.9135    0.9776    0.4177 C   0  0  0  0  0  0  0  0  0  0  0  0
   -2.8664   -0.9436    0.1397 C   0  0  0  0  0  0  0  0  0  0  0  0
   -2.9868    1.4389   -0.2431 C   0  0  0  0  0  0  0  0  0  0  0  0
    2.4902   -1.1990   -0.3477 C   0  0  0  0  0  0  0  0  0  0  0  0
    3.2611    1.3175    0.3725 C   0  0  0  0  0  0  0  0  0  0  0  0
   -4.2595   -1.0115    0.1553 C   0  0  0  0  0  0  0  0  0  0  0  0
   -4.3799    1.3709   -0.2273 C   0  0  0  0  0  0  0  0  0  0  0  0
    4.1608    0.3485   -0.0419 C   0  0  0  0  0  0  0  0  0  0  0  0
   -5.0163    0.1457   -0.0281 C   0  0  0  0  0  0  0  0  0  0  0  0
   -0.4701    1.2787   -0.2608 H   0  0  0  0  0  0  0  0  0  0  0  0
    1.2142    1.7279    0.7737 H   0  0  0  0  0  0  0  0  0  0  0  0
   -2.3522   -1.8824    0.2889 H   0  0  0  0  0  0  0  0  0  0  0  0
   -2.5046    2.4006   -0.3991 H   0  0  0  0  0  0  0  0  0  0  0  0
    2.2457   -2.2127   -0.6500 H   0  0  0  0  0  0  0  0  0  0  0  0
    3.5827    2.3122    0.6633 H   0  0  0  0  0  0  0  0  0  0  0  0
   -4.7564   -1.9649    0.3103 H   0  0  0  0  0  0  0  0  0  0  0  0
   -4.9694    2.2718   -0.3701 H   0  0  0  0  0  0  0  0  0  0  0  0
   -6.1010    0.0928   -0.0160 H   0  0  0  0  0  0  0  0  0  0  0  0
    5.7669    1.6823   -0.2414 H   0  0  0  0  0  0  0  0  0  0  0  0
    6.1832    0.0015   -0.3937 H   0  0  0  0  0  0  0  0  0  0  0  0
  1  7  2  0  0  0  0
  2  5  1  0  0  0  0
  2  7  1  0  0  0  0
  2 17  1  0  0  0  0
  3 11  1  0  0  0  0
  3 15  2  0  0  0  0
  4 15  1  0  0  0  0
  4 26  1  0  0  0  0
  4 27  1  0  0  0  0
  5  9  2  0  0  0  0
  5 10  1  0  0  0  0
  6  7  1  0  0  0  0
  6  8  1  0  0  0  0
  6 11  2  0  0  0  0
  8 12  2  0  0  0  0
  8 18  1  0  0  0  0
  9 13  1  0  0  0  0
  9 19  1  0  0  0  0
 10 14  2  0  0  0  0
 10 20  1  0  0  0  0
 11 21  1  0  0  0  0
 12 15  1  0  0  0  0
 12 22  1  0  0  0  0
 13 16  2  0  0  0  0
 13 23  1  0  0  0  0
 14 16  1  0  0  0  0
 14 24  1  0  0  0  0
 16 25  1  0  0  0  0
M  END
>  <PUBCHEM_COMPOUND_CID>
20215045

>  <PUBCHEM_CONFORMER_RMSD>
0.6

>  <PUBCHEM_CONFORMER_DIVERSEORDER>
1
5
3
6
2
4

>  <PUBCHEM_MMFF94_PARTIAL_CHARGES>
27
1 -0.57
10 -0.15
11 0.16
12 -0.15
13 -0.15
14 -0.15
15 0.41
16 -0.15
17 0.37
18 0.15
19 0.15
2 -0.55
20 0.15
21 0.15
22 0.15
23 0.15
24 0.15
25 0.15
26 0.4
27 0.4
3 -0.62
4 -0.9
5 0.12
6 0.09
7 0.54
8 -0.15
9 -0.15

>  <PUBCHEM_EFFECTIVE_ROTOR_COUNT>
3

>  <PUBCHEM_PHARMACOPHORE_FEATURES>
6
1 1 acceptor
1 2 donor
1 4 donor
3 3 4 15 cation
6 3 6 8 11 12 15 rings
6 5 9 10 13 14 16 rings

>  <PUBCHEM_HEAVY_ATOM_COUNT>
16

>  <PUBCHEM_ATOM_DEF_STEREO_COUNT>
0

>  <PUBCHEM_ATOM_UDEF_STEREO_COUNT>
0

>  <PUBCHEM_BOND_DEF_STEREO_COUNT>
0

>  <PUBCHEM_BOND_UDEF_STEREO_COUNT>
0

>  <PUBCHEM_ISOTOPIC_ATOM_COUNT>
0

>  <PUBCHEM_COMPONENT_COUNT>
1

>  <PUBCHEM_CACTVS_TAUTO_COUNT>
7

>  <PUBCHEM_CONFORMER_ID>
0134750500000001

>  <PUBCHEM_MMFF94_ENERGY>
57.1315

>  <PUBCHEM_FEATURE_SELFOVERLAP>
30.446

>  <PUBCHEM_SHAPE_FINGERPRINT>
10014705 185 18187642475741048309
10608611 8 18411697707531188161
11132069 177 18113900455389977005
11471102 20 18272089383748217726
11615757 297 17632579366085019185
12916748 109 18408609153583026920
13081056 2 18412544323021313041
13214271 11 18408039624441237335
14123238 8 18060419122718610996
14251764 18 18187076270592423514
15196674 1 18410573959381647373
17834072 33 18060413638541239887
18186145 218 18201446852078952786
200 152 17704353268927300235
20645477 56 18410011056725633329
20645477 70 18059579031817182742
21267235 1 18411708698384088591
22854114 59 18333732411905522061
23402539 116 18341043094741106558
23402655 69 18202001019008915572
23559900 14 18340767031597684146
2916195 48 18342729763096023136
351380 180 18409446994322980360
3545911 37 18411983563606564773
4028521 119 18261948562362283509
4047638 21 18409450289227495618
4214541 1 18411700967780611369
42788 4 18410012143568676020
4990 188 18201725033084844414
5104073 3 18409167671378145435
542803 24 17240485809800490141
633830 44 18410570669516067143
69090 78 18272086132025873903
77779 3 18412263926186609381
9709674 26 18411987970222476775

>  <PUBCHEM_SHAPE_MULTIPOLES>
308.46
11.21
1.56
0.65
1.01
0.07
0
-2.34
0.53
-0.3
-0.02
0.03
-0.01
0.51

>  <PUBCHEM_SHAPE_SELFOVERLAP>
663.9

>  <PUBCHEM_SHAPE_VOLUME>
168.3

>  <PUBCHEM_COORDINATE_TYPE>
2
5
10

$$$$
