20321194
 OpenBabel01182520543D

 17 17  0  0  0  0  0  0  0  0999 V2000
    3.4653   -1.0995   -0.0113 O   0  0  0  0  0  0  0  0  0  0  0  0
   -3.3742   -1.0953   -0.0004 O   0  5  0  0  0  0  0  0  0  0  0  0
   -3.4127    1.0996   -0.0036 O   0  0  0  0  0  0  0  0  0  0  0  0
   -0.7036    1.2164   -0.0012 N   0  0  0  0  0  0  0  0  0  0  0  0
   -2.7955    0.0127   -0.0013 N   0  3  0  0  0  0  0  0  0  0  0  0
    3.4628    1.1937    0.0020 N   0  0  0  0  0  0  0  0  0  0  0  0
    1.3619   -0.0400    0.0031 C   0  0  0  0  0  0  0  0  0  0  0  0
    0.6456   -1.2318    0.0047 C   0  0  0  0  0  0  0  0  0  0  0  0
   -0.7446   -1.2009    0.0034 C   0  0  0  0  0  0  0  0  0  0  0  0
   -1.3657    0.0376    0.0006 C   0  0  0  0  0  0  0  0  0  0  0  0
    0.6464    1.1466    0.0003 C   0  0  0  0  0  0  0  0  0  0  0  0
    2.8144   -0.0389    0.0036 C   0  0  0  0  0  0  0  0  0  0  0  0
    1.1501   -2.1942    0.0069 H   0  0  0  0  0  0  0  0  0  0  0  0
   -1.2740   -2.1481    0.0047 H   0  0  0  0  0  0  0  0  0  0  0  0
    1.1011    2.1291   -0.0017 H   0  0  0  0  0  0  0  0  0  0  0  0
    3.0084    2.0980    0.0089 H   0  0  0  0  0  0  0  0  0  0  0  0
    4.4776    1.2237   -0.0048 H   0  0  0  0  0  0  0  0  0  0  0  0
  1 12  2  0  0  0  0
  2  5  1  0  0  0  0
  3  5  2  0  0  0  0
  4 10  2  0  0  0  0
  4 11  1  0  0  0  0
  5 10  1  0  0  0  0
  6 12  1  0  0  0  0
  6 16  1  0  0  0  0
  6 17  1  0  0  0  0
  7  8  1  0  0  0  0
  7 11  2  0  0  0  0
  7 12  1  0  0  0  0
  8  9  2  0  0  0  0
  8 13  1  0  0  0  0
  9 10  1  0  0  0  0
  9 14  1  0  0  0  0
 11 15  1  0  0  0  0
M  CHG  2   2  -1   5   1
M  END
>  <PUBCHEM_COMPOUND_CID>
20321194

>  <PUBCHEM_CONFORMER_RMSD>
0.6

>  <PUBCHEM_CONFORMER_DIVERSEORDER>
1
2

>  <PUBCHEM_MMFF94_PARTIAL_CHARGES>
17
1 -0.57
10 0.44
11 0.16
12 0.54
13 0.15
14 0.15
15 0.15
16 0.37
17 0.37
2 -0.52
3 -0.52
4 -0.62
5 0.91
6 -0.8
7 0.09
8 -0.15
9 -0.15

>  <PUBCHEM_EFFECTIVE_ROTOR_COUNT>
2

>  <PUBCHEM_PHARMACOPHORE_FEATURES>
6
1 1 acceptor
1 2 acceptor
1 3 acceptor
1 6 donor
3 4 5 10 cation
6 4 7 8 9 10 11 rings

>  <PUBCHEM_HEAVY_ATOM_COUNT>
12

>  <PUBCHEM_ATOM_DEF_STEREO_COUNT>
0

>  <PUBCHEM_ATOM_UDEF_STEREO_COUNT>
0

>  <PUBCHEM_BOND_DEF_STEREO_COUNT>
0

>  <PUBCHEM_BOND_UDEF_STEREO_COUNT>
0

>  <PUBCHEM_ISOTOPIC_ATOM_COUNT>
0

>  <PUBCHEM_COMPONENT_COUNT>
1

>  <PUBCHEM_CACTVS_TAUTO_COUNT>
2

>  <PUBCHEM_CONFORMER_ID>
013613AA00000001

>  <PUBCHEM_MMFF94_ENERGY>
34.1265

>  <PUBCHEM_FEATURE_SELFOVERLAP>
30.527

>  <PUBCHEM_SHAPE_FINGERPRINT>
10219947 1 18410858762968574950
11062470 55 18411419513898870592
12032990 46 18410580586527072394
12932764 1 17168135719968270154
14325111 11 18410573989472837664
16945 1 18410291389246363458
18186145 218 18113615664397768502
193761 8 17545882624805024674
23235685 24 18410288116433778668
23402539 116 18272359859155415070
23402655 69 18196919008390293229
23463225 33 18336544924153065874
23552423 10 18260548952674060670
2748010 2 18122344837392067086
528886 8 18411694387542418027

>  <PUBCHEM_SHAPE_MULTIPOLES>
214.4
5.69
1.44
0.57
0.26
0
0
0.23
0.01
-0.03
0
-0.03
-0.01
0

>  <PUBCHEM_SHAPE_SELFOVERLAP>
452.663

>  <PUBCHEM_SHAPE_VOLUME>
118.2

>  <PUBCHEM_COORDINATE_TYPE>
2
5
10

$$$$
