20321104
 OpenBabel01182520543D

 18 18  0  0  0  0  0  0  0  0999 V2000
    2.9727    1.3353    0.4486 O   0  0  0  0  0  0  0  0  0  0  0  0
    4.5608   -0.7116   -0.2746 O   0  0  0  0  0  0  0  0  0  0  0  0
   -3.6594   -1.2649    0.1042 O   0  5  0  0  0  0  0  0  0  0  0  0
   -3.8648    0.8997   -0.1982 O   0  0  0  0  0  0  0  0  0  0  0  0
   -1.1739    1.2309   -0.1571 N   0  0  0  0  0  0  0  0  0  0  0  0
   -3.1669   -0.1246   -0.0358 N   0  3  0  0  0  0  0  0  0  0  0  0
    3.1643   -0.8375   -0.2967 N   0  0  0  0  0  0  0  0  0  0  0  0
    0.9802    0.1549    0.0599 C   0  0  0  0  0  0  0  0  0  0  0  0
    0.3571   -1.0791    0.2087 C   0  0  0  0  0  0  0  0  0  0  0  0
   -1.0307   -1.1596    0.1748 C   0  0  0  0  0  0  0  0  0  0  0  0
   -1.7440    0.0140   -0.0089 C   0  0  0  0  0  0  0  0  0  0  0  0
    0.1770    1.2697   -0.1187 C   0  0  0  0  0  0  0  0  0  0  0  0
    2.4276    0.2729    0.0938 C   0  0  0  0  0  0  0  0  0  0  0  0
    0.9206   -1.9930    0.3728 H   0  0  0  0  0  0  0  0  0  0  0  0
   -1.4865   -2.1366    0.2984 H   0  0  0  0  0  0  0  0  0  0  0  0
    0.5983    2.2625   -0.2443 H   0  0  0  0  0  0  0  0  0  0  0  0
    2.7953   -1.6983   -0.6850 H   0  0  0  0  0  0  0  0  0  0  0  0
    4.7940   -1.2179   -1.0709 H   0  0  0  0  0  0  0  0  0  0  0  0
  1 13  2  0  0  0  0
  2  7  1  0  0  0  0
  2 18  1  0  0  0  0
  3  6  1  0  0  0  0
  4  6  2  0  0  0  0
  5 11  2  0  0  0  0
  5 12  1  0  0  0  0
  6 11  1  0  0  0  0
  7 13  1  0  0  0  0
  7 17  1  0  0  0  0
  8  9  1  0  0  0  0
  8 12  2  0  0  0  0
  8 13  1  0  0  0  0
  9 10  2  0  0  0  0
  9 14  1  0  0  0  0
 10 11  1  0  0  0  0
 10 15  1  0  0  0  0
 12 16  1  0  0  0  0
M  CHG  2   3  -1   6   1
M  END
>  <PUBCHEM_COMPOUND_CID>
20321104

>  <PUBCHEM_CONFORMER_RMSD>
0.6

>  <PUBCHEM_CONFORMER_DIVERSEORDER>
1
2

>  <PUBCHEM_MMFF94_PARTIAL_CHARGES>
18
1 -0.57
10 -0.15
11 0.44
12 0.16
13 0.54
14 0.15
15 0.15
16 0.15
17 0.37
18 0.4
2 -0.44
3 -0.52
4 -0.52
5 -0.62
6 0.91
7 -0.39
8 0.09
9 -0.15

>  <PUBCHEM_EFFECTIVE_ROTOR_COUNT>
3

>  <PUBCHEM_PHARMACOPHORE_FEATURES>
6
1 1 acceptor
1 3 acceptor
1 4 acceptor
1 7 donor
3 5 6 11 cation
6 5 8 9 10 11 12 rings

>  <PUBCHEM_HEAVY_ATOM_COUNT>
13

>  <PUBCHEM_ATOM_DEF_STEREO_COUNT>
0

>  <PUBCHEM_ATOM_UDEF_STEREO_COUNT>
0

>  <PUBCHEM_BOND_DEF_STEREO_COUNT>
0

>  <PUBCHEM_BOND_UDEF_STEREO_COUNT>
0

>  <PUBCHEM_ISOTOPIC_ATOM_COUNT>
0

>  <PUBCHEM_COMPONENT_COUNT>
1

>  <PUBCHEM_CACTVS_TAUTO_COUNT>
3

>  <PUBCHEM_CONFORMER_ID>
0136135000000001

>  <PUBCHEM_MMFF94_ENERGY>
35.7685

>  <PUBCHEM_FEATURE_SELFOVERLAP>
30.527

>  <PUBCHEM_SHAPE_FINGERPRINT>
10219947 1 18272934946475431071
10608611 8 18411414037852770865
11062470 55 11891333153404818566
11132069 177 18410284826583912049
11401426 45 18411412899664929127
12032990 46 18409172142381155387
12932764 1 16515672377398619252
13690532 89 18335984186281907810
14325111 11 18410854386544684329
14993402 34 16732986439781691246
15219456 202 18343016731251197200
16945 1 17095517417997309257
18175812 5 18413388743555991317
18186145 218 18114174241990125365
19026448 5 16486974028902720513
193761 8 17688588256264723697
200 152 17632572734296856759
20201158 50 18271811194363765190
20645477 70 18201718431541022454
23402539 116 18343575227001656014
23559900 14 18411698790764760410
2748010 2 18191868048569685251
69090 78 18201712976953596798

>  <PUBCHEM_SHAPE_MULTIPOLES>
229.11
6.74
1.4
0.6
1.15
0.08
0.01
-0.85
-0.44
-0.12
0.03
0.09
0
0.33

>  <PUBCHEM_SHAPE_SELFOVERLAP>
480.871

>  <PUBCHEM_SHAPE_VOLUME>
127.1

>  <PUBCHEM_COORDINATE_TYPE>
2
5
10

$$$$
