20321081
 OpenBabel01182520543D

 20 20  0  0  0  0  0  0  0  0999 V2000
    2.9492    1.3892   -0.4418 O   0  0  0  0  0  0  0  0  0  0  0  0
   -3.6498   -1.2898   -0.1051 O   0  5  0  0  0  0  0  0  0  0  0  0
   -3.8771    0.8695    0.2188 O   0  0  0  0  0  0  0  0  0  0  0  0
    3.1724   -0.8052    0.2734 N   0  0  0  0  0  0  0  0  0  0  0  0
   -1.1902    1.2306    0.1654 N   0  0  0  0  0  0  0  0  0  0  0  0
   -3.1690   -0.1455    0.0428 N   0  3  0  0  0  0  0  0  0  0  0  0
    0.9743    0.1803   -0.0725 C   0  0  0  0  0  0  0  0  0  0  0  0
    0.3638   -1.0591   -0.2291 C   0  0  0  0  0  0  0  0  0  0  0  0
    2.4203    0.3135   -0.1067 C   0  0  0  0  0  0  0  0  0  0  0  0
   -1.0228   -1.1550   -0.1887 C   0  0  0  0  0  0  0  0  0  0  0  0
    0.1599    1.2846    0.1203 C   0  0  0  0  0  0  0  0  0  0  0  0
   -1.7479    0.0090    0.0094 C   0  0  0  0  0  0  0  0  0  0  0  0
    4.6170   -0.8221    0.3139 C   0  0  0  0  0  0  0  0  0  0  0  0
    0.9320   -1.9666   -0.4107 H   0  0  0  0  0  0  0  0  0  0  0  0
   -1.4688   -2.1355   -0.3201 H   0  0  0  0  0  0  0  0  0  0  0  0
    0.5707    2.2808    0.2538 H   0  0  0  0  0  0  0  0  0  0  0  0
    2.7040   -1.6363    0.6182 H   0  0  0  0  0  0  0  0  0  0  0  0
    4.9578   -1.8390    0.1064 H   0  0  0  0  0  0  0  0  0  0  0  0
    4.9356   -0.5233    1.3156 H   0  0  0  0  0  0  0  0  0  0  0  0
    5.0295   -0.1299   -0.4241 H   0  0  0  0  0  0  0  0  0  0  0  0
  1  9  2  0  0  0  0
  2  6  1  0  0  0  0
  3  6  2  0  0  0  0
  4  9  1  0  0  0  0
  4 13  1  0  0  0  0
  4 17  1  0  0  0  0
  5 11  1  0  0  0  0
  5 12  2  0  0  0  0
  6 12  1  0  0  0  0
  7  8  1  0  0  0  0
  7  9  1  0  0  0  0
  7 11  2  0  0  0  0
  8 10  2  0  0  0  0
  8 14  1  0  0  0  0
 10 12  1  0  0  0  0
 10 15  1  0  0  0  0
 11 16  1  0  0  0  0
 13 18  1  0  0  0  0
 13 19  1  0  0  0  0
 13 20  1  0  0  0  0
M  CHG  2   2  -1   6   1
M  END
>  <PUBCHEM_COMPOUND_CID>
20321081

>  <PUBCHEM_CONFORMER_RMSD>
0.6

>  <PUBCHEM_CONFORMER_DIVERSEORDER>
2
1

>  <PUBCHEM_MMFF94_PARTIAL_CHARGES>
17
1 -0.57
10 -0.15
11 0.16
12 0.44
13 0.3
14 0.15
15 0.15
16 0.15
17 0.37
2 -0.52
3 -0.52
4 -0.73
5 -0.62
6 0.91
7 0.09
8 -0.15
9 0.54

>  <PUBCHEM_EFFECTIVE_ROTOR_COUNT>
3

>  <PUBCHEM_PHARMACOPHORE_FEATURES>
6
1 1 acceptor
1 2 acceptor
1 3 acceptor
1 4 donor
3 5 6 12 cation
6 5 7 8 10 11 12 rings

>  <PUBCHEM_HEAVY_ATOM_COUNT>
13

>  <PUBCHEM_ATOM_DEF_STEREO_COUNT>
0

>  <PUBCHEM_ATOM_UDEF_STEREO_COUNT>
0

>  <PUBCHEM_BOND_DEF_STEREO_COUNT>
0

>  <PUBCHEM_BOND_UDEF_STEREO_COUNT>
0

>  <PUBCHEM_ISOTOPIC_ATOM_COUNT>
0

>  <PUBCHEM_COMPONENT_COUNT>
1

>  <PUBCHEM_CACTVS_TAUTO_COUNT>
2

>  <PUBCHEM_CONFORMER_ID>
0136133900000002

>  <PUBCHEM_MMFF94_ENERGY>
31.7748

>  <PUBCHEM_FEATURE_SELFOVERLAP>
30.527

>  <PUBCHEM_SHAPE_FINGERPRINT>
10130415 120 18410008845107613456
10219947 1 18335142007266094437
11132069 177 18272088275187777963
11401426 45 18272644632550996725
12032990 46 18411141350357879855
12119455 92 16630237031042514780
124424 183 18335416863961907015
13690532 89 18335137562365430594
13760787 5 18335423495317533213
14325111 11 18410857689364004941
16945 1 17131840884121987133
18186145 218 17385437743404868121
19026448 4 16588024645021838277
193761 8 17619914959048732309
19422 9 18335704978646833899
20645476 183 17970367003328102870
21501925 9 18410567388656645570
23402539 116 18131059416235265341
23463225 33 18410011018292584238
23559900 14 18272651247470584528
42 15 18410290294536202754
5104073 3 18411420639174943921
53655031 270 18410575037434347586

>  <PUBCHEM_SHAPE_MULTIPOLES>
234.98
7.14
1.42
0.61
1.64
0.11
-0.01
-1.27
0.63
-0.06
-0.04
0.12
0
-0.36

>  <PUBCHEM_SHAPE_SELFOVERLAP>
489.458

>  <PUBCHEM_SHAPE_VOLUME>
132

>  <PUBCHEM_COORDINATE_TYPE>
2
5
10

$$$$
