20357813
 OpenBabel01182520543D

 18 18  0  0  0  0  0  0  0  0999 V2000
    2.3884    0.8239    0.0108 O   0  0  0  0  0  0  0  0  0  0  0  0
   -1.7850    0.9426    0.0002 N   0  3  0  0  0  0  0  0  0  0  0  0
    0.1813    2.2247   -0.0045 N   0  0  0  0  0  0  0  0  0  0  0  0
    2.3642   -1.4691   -0.0037 N   0  0  0  0  0  0  0  0  0  0  0  0
    0.2750   -0.2156   -0.0018 C   0  0  0  0  0  0  0  0  0  0  0  0
   -0.4453    0.9704   -0.0018 C   0  0  0  0  0  0  0  0  0  0  0  0
   -0.4195   -1.4217    0.0003 C   0  0  0  0  0  0  0  0  0  0  0  0
   -1.8111   -1.4206    0.0023 C   0  0  0  0  0  0  0  0  0  0  0  0
   -2.4786   -0.2041    0.0021 C   0  0  0  0  0  0  0  0  0  0  0  0
    1.7307   -0.2306   -0.0039 C   0  0  0  0  0  0  0  0  0  0  0  0
    0.0503   -2.3974    0.0011 H   0  0  0  0  0  0  0  0  0  0  0  0
   -2.2939    1.8257   -0.0001 H   0  0  0  0  0  0  0  0  0  0  0  0
   -2.3656   -2.3530    0.0040 H   0  0  0  0  0  0  0  0  0  0  0  0
   -3.5555   -0.1075    0.0036 H   0  0  0  0  0  0  0  0  0  0  0  0
    1.0944    2.3120   -0.4321 H   0  0  0  0  0  0  0  0  0  0  0  0
   -0.4052    3.0503    0.0067 H   0  0  0  0  0  0  0  0  0  0  0  0
    1.9112   -2.3735   -0.0112 H   0  0  0  0  0  0  0  0  0  0  0  0
    3.3788   -1.5054    0.0020 H   0  0  0  0  0  0  0  0  0  0  0  0
  1 10  2  0  0  0  0
  2  6  1  0  0  0  0
  2  9  2  0  0  0  0
  2 12  1  0  0  0  0
  3  6  1  0  0  0  0
  3 15  1  0  0  0  0
  3 16  1  0  0  0  0
  4 10  1  0  0  0  0
  4 17  1  0  0  0  0
  4 18  1  0  0  0  0
  5  6  2  0  0  0  0
  5  7  1  0  0  0  0
  5 10  1  0  0  0  0
  7  8  2  0  0  0  0
  7 11  1  0  0  0  0
  8  9  1  0  0  0  0
  8 13  1  0  0  0  0
  9 14  1  0  0  0  0
M  CHG  1   2   1
M  END
>  <PUBCHEM_COMPOUND_CID>
20357813

>  <PUBCHEM_CONFORMER_RMSD>
0.4

>  <PUBCHEM_CONFORMER_DIVERSEORDER>
3
1
2

>  <PUBCHEM_MMFF94_PARTIAL_CHARGES>
18
1 -0.57
10 0.54
11 0.15
12 0.46
13 0.15
14 0.15
15 0.4
16 0.4
17 0.37
18 0.37
2 -0.18
3 -0.9
4 -0.8
5 0.09
6 0.46
7 -0.15
8 -0.15
9 0.21

>  <PUBCHEM_EFFECTIVE_ROTOR_COUNT>
1

>  <PUBCHEM_PHARMACOPHORE_FEATURES>
7
1 1 acceptor
1 2 acceptor
1 2 donor
1 3 cation
1 3 donor
1 4 donor
6 2 5 6 7 8 9 rings

>  <PUBCHEM_HEAVY_ATOM_COUNT>
10

>  <PUBCHEM_ATOM_DEF_STEREO_COUNT>
0

>  <PUBCHEM_ATOM_UDEF_STEREO_COUNT>
0

>  <PUBCHEM_BOND_DEF_STEREO_COUNT>
0

>  <PUBCHEM_BOND_UDEF_STEREO_COUNT>
0

>  <PUBCHEM_ISOTOPIC_ATOM_COUNT>
0

>  <PUBCHEM_COMPONENT_COUNT>
1

>  <PUBCHEM_CACTVS_TAUTO_COUNT>
10

>  <PUBCHEM_CONFORMER_ID>
0136A2B500000003

>  <PUBCHEM_MMFF94_ENERGY>
36.7852

>  <PUBCHEM_FEATURE_SELFOVERLAP>
35.561

>  <PUBCHEM_SHAPE_FINGERPRINT>
10857977 72 18339349885372992690
12524768 44 18342462529813939470
12897270 3 18410858789023260934
16945 1 18266458904523630695
18185500 45 18337391637978922302
21040471 1 18122343480166557765
23552423 10 18260551121326694014
241688 4 18410292467246225361
2748010 2 18411136917972547655
29004967 10 18336830908549960474
369184 2 18410853256883973915
5084963 1 18057598763819291418

>  <PUBCHEM_SHAPE_MULTIPOLES>
184.98
3.2
1.87
0.58
0.5
0.43
0
-0.64
0
0.13
0
-0.03
-0.02
0

>  <PUBCHEM_SHAPE_SELFOVERLAP>
389.709

>  <PUBCHEM_SHAPE_VOLUME>
104

>  <PUBCHEM_COORDINATE_TYPE>
2
5
10

$$$$
