20517064
 OpenBabel01182520543D

 24 24  0  0  0  0  0  0  0  0999 V2000
    3.8451   -1.5384   -0.1270 O   0  0  0  0  0  0  0  0  0  0  0  0
    2.3063   -0.9300    1.4352 O   0  0  0  0  0  0  0  0  0  0  0  0
   -3.9599   -0.3088    0.3578 O   0  0  0  0  0  0  0  0  0  0  0  0
    0.7020    0.2139   -0.4878 N   0  3  0  0  0  0  0  0  0  0  0  0
    1.8193    2.3296   -0.1977 N   0  0  0  0  0  0  0  0  0  0  0  0
   -2.7558   -2.1325   -0.3373 N   0  0  0  0  0  0  0  0  0  0  0  0
    0.6459    1.5502   -0.1417 C   0  0  0  0  0  0  0  0  0  0  0  0
    1.9491   -0.4112   -0.9107 C   0  0  0  0  0  0  0  0  0  0  0  0
   -0.4532   -0.5416   -0.4300 C   0  0  0  0  0  0  0  0  0  0  0  0
   -1.6606    0.0222   -0.0309 C   0  0  0  0  0  0  0  0  0  0  0  0
   -0.5489    2.1380    0.2608 C   0  0  0  0  0  0  0  0  0  0  0  0
   -1.7056    1.3682    0.3155 C   0  0  0  0  0  0  0  0  0  0  0  0
    2.6798   -0.9683    0.2725 C   0  0  0  0  0  0  0  0  0  0  0  0
   -2.8636   -0.7913    0.0213 C   0  0  0  0  0  0  0  0  0  0  0  0
    2.5615    0.2928   -1.4760 H   0  0  0  0  0  0  0  0  0  0  0  0
    1.6948   -1.2353   -1.5873 H   0  0  0  0  0  0  0  0  0  0  0  0
   -0.3064   -1.5729   -0.7129 H   0  0  0  0  0  0  0  0  0  0  0  0
   -0.5905    3.1889    0.5333 H   0  0  0  0  0  0  0  0  0  0  0  0
   -2.6321    1.8401    0.6319 H   0  0  0  0  0  0  0  0  0  0  0  0
    1.7206    3.3341   -0.2814 H   0  0  0  0  0  0  0  0  0  0  0  0
    2.7131    1.9276   -0.4359 H   0  0  0  0  0  0  0  0  0  0  0  0
   -1.9061   -2.6000   -0.6267 H   0  0  0  0  0  0  0  0  0  0  0  0
   -3.5822   -2.7217   -0.3161 H   0  0  0  0  0  0  0  0  0  0  0  0
    4.3467   -1.9130    0.6281 H   0  0  0  0  0  0  0  0  0  0  0  0
  1 13  1  0  0  0  0
  1 24  1  0  0  0  0
  2 13  2  0  0  0  0
  3 14  2  0  0  0  0
  4  7  2  0  0  0  0
  4  8  1  0  0  0  0
  4  9  1  0  0  0  0
  5  7  1  0  0  0  0
  5 20  1  0  0  0  0
  5 21  1  0  0  0  0
  6 14  1  0  0  0  0
  6 22  1  0  0  0  0
  6 23  1  0  0  0  0
  7 11  1  0  0  0  0
  8 13  1  0  0  0  0
  8 15  1  0  0  0  0
  8 16  1  0  0  0  0
  9 10  2  0  0  0  0
  9 17  1  0  0  0  0
 10 12  1  0  0  0  0
 10 14  1  0  0  0  0
 11 12  2  0  0  0  0
 11 18  1  0  0  0  0
 12 19  1  0  0  0  0
M  CHG  1   4   1
M  END
>  <PUBCHEM_COMPOUND_CID>
20517064

>  <PUBCHEM_CONFORMER_RMSD>
0.6

>  <PUBCHEM_CONFORMER_DIVERSEORDER>
2
12
6
10
7
1
9
8
11
4
5
3

>  <PUBCHEM_MMFF94_PARTIAL_CHARGES>
22
1 -0.65
10 0.09
11 -0.15
12 -0.15
13 0.66
14 0.54
17 0.15
18 0.15
19 0.15
2 -0.57
20 0.4
21 0.4
22 0.37
23 0.37
24 0.5
3 -0.57
4 -0.21
5 -0.9
6 -0.8
7 0.46
8 0.55
9 0.21

>  <PUBCHEM_EFFECTIVE_ROTOR_COUNT>
3

>  <PUBCHEM_PHARMACOPHORE_FEATURES>
8
1 1 acceptor
1 2 acceptor
1 3 acceptor
1 5 donor
1 6 donor
3 1 2 13 anion
3 4 5 7 cation
6 4 7 9 10 11 12 rings

>  <PUBCHEM_HEAVY_ATOM_COUNT>
14

>  <PUBCHEM_ATOM_DEF_STEREO_COUNT>
0

>  <PUBCHEM_ATOM_UDEF_STEREO_COUNT>
0

>  <PUBCHEM_BOND_DEF_STEREO_COUNT>
0

>  <PUBCHEM_BOND_UDEF_STEREO_COUNT>
0

>  <PUBCHEM_ISOTOPIC_ATOM_COUNT>
0

>  <PUBCHEM_COMPONENT_COUNT>
1

>  <PUBCHEM_CACTVS_TAUTO_COUNT>
7

>  <PUBCHEM_CONFORMER_ID>
013910C800000002

>  <PUBCHEM_MMFF94_ENERGY>
45.8097

>  <PUBCHEM_FEATURE_SELFOVERLAP>
40.653

>  <PUBCHEM_SHAPE_FINGERPRINT>
10130415 120 18411985771499199953
10857977 72 18200588107859718152
11578080 2 17604972776854279420
11769659 78 18408601491630409231
12202030 40 16951704660370636491
12932764 1 18186803616813984991
15375462 189 18186804668611786042
16945 1 18269282257284642389
20645477 70 18265046006892909919
20653091 64 18408325509959269472
20711985 365 18411421679079612357
20871998 184 18129659673608836918
20871998 22 18342464694746391150
21501502 16 18340777013186167037
21501925 9 18342449396062281063
21650355 55 18121767353749422752
232386 152 18409736144422235918
23402539 116 18129370515547699813
23463225 33 18340772623586795573
23552423 10 18191031298978505821
23559900 14 18196646307857434546
23598294 1 18120651331871670266
2748010 2 18412258450093264413
528862 383 18266173027189857844
5902787 121 18409445929340240315
7364860 26 18269837669686555624
75552 356 18268709415789104874
81228 2 18126295142369093881
81539 233 18045216304570485412

>  <PUBCHEM_SHAPE_MULTIPOLES>
255.56
5.41
2.25
0.83
0.26
0.87
-0.11
-3.42
-0.54
-0.15
0
-0.38
-0.13
-0.4

>  <PUBCHEM_SHAPE_SELFOVERLAP>
532.494

>  <PUBCHEM_SHAPE_VOLUME>
143.7

>  <PUBCHEM_COORDINATE_TYPE>
2
5
10

$$$$
