20517052
 OpenBabel01182520543D

 31 32  0  0  0  0  0  0  0  0999 V2000
   -4.4214    1.1191    0.8082 O   0  0  0  0  0  0  0  0  0  0  0  0
   -0.2807   -0.6841   -0.7163 N   0  3  0  0  0  0  0  0  0  0  0  0
    0.4238   -2.9166   -0.1434 N   0  0  0  0  0  0  0  0  0  0  0  0
   -3.0738    2.4210   -0.5138 N   0  0  0  0  0  0  0  0  0  0  0  0
    0.9423   -0.4711   -1.4803 C   0  0  0  0  0  0  0  0  0  0  0  0
    2.0315    0.1028   -0.6159 C   0  0  0  0  0  0  0  0  0  0  0  0
   -0.5270   -1.8785   -0.0671 C   0  0  0  0  0  0  0  0  0  0  0  0
   -1.2183    0.3274   -0.6355 C   0  0  0  0  0  0  0  0  0  0  0  0
   -2.3963    0.1585    0.0847 C   0  0  0  0  0  0  0  0  0  0  0  0
   -1.6971   -2.0726    0.6595 C   0  0  0  0  0  0  0  0  0  0  0  0
   -2.6341   -1.0480    0.7340 C   0  0  0  0  0  0  0  0  0  0  0  0
    2.9044   -0.7479    0.0626 C   0  0  0  0  0  0  0  0  0  0  0  0
    2.1689    1.4854   -0.4930 C   0  0  0  0  0  0  0  0  0  0  0  0
    3.9145   -0.2160    0.8641 C   0  0  0  0  0  0  0  0  0  0  0  0
    3.1792    2.0173    0.3084 C   0  0  0  0  0  0  0  0  0  0  0  0
   -3.3679    1.2367    0.1570 C   0  0  0  0  0  0  0  0  0  0  0  0
    4.0520    1.1666    0.9870 C   0  0  0  0  0  0  0  0  0  0  0  0
    0.7076    0.2232   -2.2985 H   0  0  0  0  0  0  0  0  0  0  0  0
    1.2488   -1.3880   -1.9910 H   0  0  0  0  0  0  0  0  0  0  0  0
   -0.9374    1.2193   -1.1742 H   0  0  0  0  0  0  0  0  0  0  0  0
   -1.8889   -3.0130    1.1687 H   0  0  0  0  0  0  0  0  0  0  0  0
   -3.5439   -1.2131    1.3050 H   0  0  0  0  0  0  0  0  0  0  0  0
    2.8470   -1.8252   -0.0335 H   0  0  0  0  0  0  0  0  0  0  0  0
    1.4976    2.1605   -1.0170 H   0  0  0  0  0  0  0  0  0  0  0  0
    4.5986   -0.8779    1.3870 H   0  0  0  0  0  0  0  0  0  0  0  0
    3.2868    3.0938    0.4036 H   0  0  0  0  0  0  0  0  0  0  0  0
    0.4165   -3.6218    0.5837 H   0  0  0  0  0  0  0  0  0  0  0  0
    1.2472   -2.8526   -0.7187 H   0  0  0  0  0  0  0  0  0  0  0  0
    4.8396    1.5808    1.6096 H   0  0  0  0  0  0  0  0  0  0  0  0
   -2.2404    2.5995   -1.0595 H   0  0  0  0  0  0  0  0  0  0  0  0
   -3.7325    3.1926   -0.4741 H   0  0  0  0  0  0  0  0  0  0  0  0
  1 16  2  0  0  0  0
  2  5  1  0  0  0  0
  2  7  2  0  0  0  0
  2  8  1  0  0  0  0
  3  7  1  0  0  0  0
  3 27  1  0  0  0  0
  3 28  1  0  0  0  0
  4 16  1  0  0  0  0
  4 30  1  0  0  0  0
  4 31  1  0  0  0  0
  5  6  1  0  0  0  0
  5 18  1  0  0  0  0
  5 19  1  0  0  0  0
  6 12  2  0  0  0  0
  6 13  1  0  0  0  0
  7 10  1  0  0  0  0
  8  9  2  0  0  0  0
  8 20  1  0  0  0  0
  9 11  1  0  0  0  0
  9 16  1  0  0  0  0
 10 11  2  0  0  0  0
 10 21  1  0  0  0  0
 11 22  1  0  0  0  0
 12 14  1  0  0  0  0
 12 23  1  0  0  0  0
 13 15  2  0  0  0  0
 13 24  1  0  0  0  0
 14 17  2  0  0  0  0
 14 25  1  0  0  0  0
 15 17  1  0  0  0  0
 15 26  1  0  0  0  0
 17 29  1  0  0  0  0
M  CHG  1   2   1
M  END
>  <PUBCHEM_COMPOUND_CID>
20517052

>  <PUBCHEM_CONFORMER_RMSD>
0.6

>  <PUBCHEM_CONFORMER_DIVERSEORDER>
2
14
11
16
1
12
13
7
9
15
3
10
4
6
5
8

>  <PUBCHEM_MMFF94_PARTIAL_CHARGES>
29
1 -0.57
10 -0.15
11 -0.15
12 -0.15
13 -0.15
14 -0.15
15 -0.15
16 0.54
17 -0.15
2 -0.21
20 0.15
21 0.15
22 0.15
23 0.15
24 0.15
25 0.15
26 0.15
27 0.4
28 0.4
29 0.15
3 -0.9
30 0.37
31 0.37
4 -0.8
5 0.63
6 -0.14
7 0.46
8 0.21
9 0.09

>  <PUBCHEM_EFFECTIVE_ROTOR_COUNT>
3

>  <PUBCHEM_PHARMACOPHORE_FEATURES>
6
1 1 acceptor
1 3 donor
1 4 donor
3 2 3 7 cation
6 2 7 8 9 10 11 rings
6 6 12 13 14 15 17 rings

>  <PUBCHEM_HEAVY_ATOM_COUNT>
17

>  <PUBCHEM_ATOM_DEF_STEREO_COUNT>
0

>  <PUBCHEM_ATOM_UDEF_STEREO_COUNT>
0

>  <PUBCHEM_BOND_DEF_STEREO_COUNT>
0

>  <PUBCHEM_BOND_UDEF_STEREO_COUNT>
0

>  <PUBCHEM_ISOTOPIC_ATOM_COUNT>
0

>  <PUBCHEM_COMPONENT_COUNT>
1

>  <PUBCHEM_CACTVS_TAUTO_COUNT>
7

>  <PUBCHEM_CONFORMER_ID>
013910BC00000002

>  <PUBCHEM_MMFF94_ENERGY>
61.7806

>  <PUBCHEM_FEATURE_SELFOVERLAP>
30.446

>  <PUBCHEM_SHAPE_FINGERPRINT>
10608611 8 18341051903793026364
10764073 3 9071860103546967253
10799339 124 18334292102194991824
1100329 8 16320621939894184574
11127187 94 9727370008190546507
11370993 70 18409724041262262017
12077114 3 18411696621099537128
122479 349 18343582962227238764
12251169 10 18186802486873660580
12382932 28 18338516447333317392
12403259 415 18335709278283988181
12403260 363 18409158901239640037
12507560 40 18342177817001417770
12633257 1 18261661636956081760
12670546 177 11671774983832333146
12824470 246 14926221770511630243
12892183 10 18040715908935496178
13004483 165 17694767919630391950
13571099 52 18273497857653048479
14178342 30 18119233198728257482
14420673 8 18189049794890793066
15295992 7 18130502015511576472
16945 1 18049730912140707958
17804303 29 18261961760665129670
18186145 218 18130236968642198308
20361792 2 14924212880952535030
20510252 161 18269845370467790227
21065199 12 18337107977322696826
212916 134 18270944800538563218
21452121 103 18119812413707082265
21524375 3 18272083903069326407
21713013 43 9007068975751359936
21731228 192 18409448093871771826
23382010 3 14261337068435452598
23402539 116 18268984461954602567
23559900 14 18340504295726485694
2748010 2 18337974323555261831
3082319 5 10807668795647498800
351380 180 18412257329185713357
4340502 62 18336555915660003417
4463277 69 11891631168870480793
474 4 18272091556790939417
49207404 50 18335719225343583459
5706482 22 18409161138870245251
58807428 26 18114464478980052443
6333272 397 18411985749839844545
7097593 13 18114452444676373848
7364860 26 18124600773502455831
83771 10 10737290138432049629
94968 8 11097866193664137036

>  <PUBCHEM_SHAPE_MULTIPOLES>
329.04
7.47
2.54
1.04
0.82
0.47
0.1
-4.29
-2.7
-1.06
-0.08
0.28
0.02
0.39

>  <PUBCHEM_SHAPE_SELFOVERLAP>
704.647

>  <PUBCHEM_SHAPE_VOLUME>
180.2

>  <PUBCHEM_COORDINATE_TYPE>
2
5
10

$$$$
