20585326
 OpenBabel01182520543D

 20 20  0  0  0  0  0  0  0  0999 V2000
   -1.8137   -0.8405   -1.1541 O   0  0  0  0  0  0  0  0  0  0  0  0
   -2.1945    0.6546    0.5770 N   0  0  0  0  0  0  0  0  0  0  0  0
    2.2695   -0.7709    0.3000 N   0  0  0  0  0  0  0  0  0  0  0  0
    0.3888   -2.2142    0.3130 N   0  0  0  0  0  0  0  0  0  0  0  0
    0.0689    0.1262   -0.1445 C   0  0  0  0  0  0  0  0  0  0  0  0
    0.9334   -0.9151    0.1526 C   0  0  0  0  0  0  0  0  0  0  0  0
    0.6107    1.3973   -0.3005 C   0  0  0  0  0  0  0  0  0  0  0  0
   -1.3675   -0.0604   -0.2957 C   0  0  0  0  0  0  0  0  0  0  0  0
    1.9809    1.5857   -0.1564 C   0  0  0  0  0  0  0  0  0  0  0  0
    2.7598    0.4789    0.1412 C   0  0  0  0  0  0  0  0  0  0  0  0
   -3.6364    0.5584    0.5674 C   0  0  0  0  0  0  0  0  0  0  0  0
   -0.0197    2.2501   -0.5384 H   0  0  0  0  0  0  0  0  0  0  0  0
    2.4253    2.5673   -0.2746 H   0  0  0  0  0  0  0  0  0  0  0  0
   -1.7707    1.2866    1.2501 H   0  0  0  0  0  0  0  0  0  0  0  0
    3.8338    0.5724    0.2633 H   0  0  0  0  0  0  0  0  0  0  0  0
   -4.0290    1.3645   -0.0573 H   0  0  0  0  0  0  0  0  0  0  0  0
   -3.9976    0.6783    1.5914 H   0  0  0  0  0  0  0  0  0  0  0  0
   -3.9573   -0.4066    0.1678 H   0  0  0  0  0  0  0  0  0  0  0  0
   -0.5533   -2.3039    0.6727 H   0  0  0  0  0  0  0  0  0  0  0  0
    1.0450   -2.9559    0.5255 H   0  0  0  0  0  0  0  0  0  0  0  0
  1  8  2  0  0  0  0
  2  8  1  0  0  0  0
  2 11  1  0  0  0  0
  2 14  1  0  0  0  0
  3  6  1  0  0  0  0
  3 10  2  0  0  0  0
  4  6  1  0  0  0  0
  4 19  1  0  0  0  0
  4 20  1  0  0  0  0
  5  6  2  0  0  0  0
  5  7  1  0  0  0  0
  5  8  1  0  0  0  0
  7  9  2  0  0  0  0
  7 12  1  0  0  0  0
  9 10  1  0  0  0  0
  9 13  1  0  0  0  0
 10 15  1  0  0  0  0
 11 16  1  0  0  0  0
 11 17  1  0  0  0  0
 11 18  1  0  0  0  0
M  END
>  <PUBCHEM_COMPOUND_CID>
20585326

>  <PUBCHEM_CONFORMER_RMSD>
0.4

>  <PUBCHEM_CONFORMER_DIVERSEORDER>
1
2
3
4
5

>  <PUBCHEM_MMFF94_PARTIAL_CHARGES>
17
1 -0.57
10 0.16
11 0.3
12 0.15
13 0.15
14 0.37
15 0.15
19 0.4
2 -0.73
20 0.4
3 -0.62
4 -0.9
5 0.09
6 0.41
7 -0.15
8 0.54
9 -0.15

>  <PUBCHEM_EFFECTIVE_ROTOR_COUNT>
2

>  <PUBCHEM_PHARMACOPHORE_FEATURES>
6
1 1 acceptor
1 2 donor
1 3 acceptor
1 4 cation
1 4 donor
6 3 5 6 7 9 10 rings

>  <PUBCHEM_HEAVY_ATOM_COUNT>
11

>  <PUBCHEM_ATOM_DEF_STEREO_COUNT>
0

>  <PUBCHEM_ATOM_UDEF_STEREO_COUNT>
0

>  <PUBCHEM_BOND_DEF_STEREO_COUNT>
0

>  <PUBCHEM_BOND_UDEF_STEREO_COUNT>
0

>  <PUBCHEM_ISOTOPIC_ATOM_COUNT>
0

>  <PUBCHEM_COMPONENT_COUNT>
1

>  <PUBCHEM_CACTVS_TAUTO_COUNT>
5

>  <PUBCHEM_CONFORMER_ID>
013A1B6E00000001

>  <PUBCHEM_MMFF94_ENERGY>
35.6269

>  <PUBCHEM_FEATURE_SELFOVERLAP>
30.446

>  <PUBCHEM_SHAPE_FINGERPRINT>
10219947 1 18260832587539292809
12423570 1 18056754343221088854
14325111 11 18338519741309567273
15775835 57 18273219724303494201
161256 15 18195533580061147694
16945 1 18260537944551392868
20871998 22 17908708323861903214
21040471 1 18264770050727251532
23235685 24 18334857250939767800
2748010 2 18191307280755172910
29004967 10 18041000592062904968
5084963 1 18268412689478569284
528862 383 18334856078466437187
528886 8 18409164428598701952
63268167 104 18411695482769822792

>  <PUBCHEM_SHAPE_MULTIPOLES>
205.56
4.38
1.66
0.78
2.81
0.47
-0.09
-1.2
0.77
-0.65
0.04
0.31
0.04
-0.41

>  <PUBCHEM_SHAPE_SELFOVERLAP>
424.984

>  <PUBCHEM_SHAPE_VOLUME>
117.7

>  <PUBCHEM_COORDINATE_TYPE>
2
5
10

$$$$
