20678894
 OpenBabel01182520543D

 22 23  0  0  0  0  0  0  0  0999 V2000
   -0.6831   -2.4776   -0.0023 O   0  0  0  0  0  0  0  0  0  0  0  0
   -1.7637   -0.3981    0.0013 N   0  0  0  0  0  0  0  0  0  0  0  0
   -0.4685    1.5975   -0.0004 N   0  0  0  0  0  0  0  0  0  0  0  0
    1.8574    1.5171    0.0008 N   0  0  0  0  0  0  0  0  0  0  0  0
    0.6573   -0.5670    0.0002 C   0  0  0  0  0  0  0  0  0  0  0  0
   -1.6134    0.9881   -0.0004 C   0  0  0  0  0  0  0  0  0  0  0  0
   -0.6493   -1.2506    0.0001 C   0  0  0  0  0  0  0  0  0  0  0  0
    0.6963    0.8207    0.0006 C   0  0  0  0  0  0  0  0  0  0  0  0
   -3.0913   -1.0102    0.0027 C   0  0  0  0  0  0  0  0  0  0  0  0
    1.8563   -1.2783   -0.0005 C   0  0  0  0  0  0  0  0  0  0  0  0
   -2.8616    1.8384   -0.0022 C   0  0  0  0  0  0  0  0  0  0  0  0
    3.0582   -0.5817   -0.0002 C   0  0  0  0  0  0  0  0  0  0  0  0
    3.0054    0.8017    0.0005 C   0  0  0  0  0  0  0  0  0  0  0  0
   -3.6384   -0.6759    0.8890 H   0  0  0  0  0  0  0  0  0  0  0  0
   -3.0402   -2.1018    0.0105 H   0  0  0  0  0  0  0  0  0  0  0  0
   -3.6336   -0.6883   -0.8912 H   0  0  0  0  0  0  0  0  0  0  0  0
    1.8719   -2.3641   -0.0009 H   0  0  0  0  0  0  0  0  0  0  0  0
   -3.4612    1.6238   -0.8907 H   0  0  0  0  0  0  0  0  0  0  0  0
   -2.5992    2.9006   -0.0090 H   0  0  0  0  0  0  0  0  0  0  0  0
   -3.4560    1.6340    0.8922 H   0  0  0  0  0  0  0  0  0  0  0  0
    4.0072   -1.1054   -0.0006 H   0  0  0  0  0  0  0  0  0  0  0  0
    3.9159    1.3920    0.0007 H   0  0  0  0  0  0  0  0  0  0  0  0
  1  7  2  0  0  0  0
  2  6  1  0  0  0  0
  2  7  1  0  0  0  0
  2  9  1  0  0  0  0
  3  6  2  0  0  0  0
  3  8  1  0  0  0  0
  4  8  1  0  0  0  0
  4 13  2  0  0  0  0
  5  7  1  0  0  0  0
  5  8  2  0  0  0  0
  5 10  1  0  0  0  0
  6 11  1  0  0  0  0
  9 14  1  0  0  0  0
  9 15  1  0  0  0  0
  9 16  1  0  0  0  0
 10 12  2  0  0  0  0
 10 17  1  0  0  0  0
 11 18  1  0  0  0  0
 11 19  1  0  0  0  0
 11 20  1  0  0  0  0
 12 13  1  0  0  0  0
 12 21  1  0  0  0  0
 13 22  1  0  0  0  0
M  END
>  <PUBCHEM_COMPOUND_CID>
20678894

>  <PUBCHEM_CONFORMER_RMSD>
0.4

>  <PUBCHEM_CONFORMER_DIVERSEORDER>
1

>  <PUBCHEM_MMFF94_PARTIAL_CHARGES>
16
1 -0.57
10 -0.15
11 0.06
12 -0.15
13 0.16
17 0.15
2 -0.42
21 0.15
22 0.15
3 -0.63
4 -0.62
5 0.09
6 0.45
7 0.54
8 0.49
9 0.3

>  <PUBCHEM_EFFECTIVE_ROTOR_COUNT>
0

>  <PUBCHEM_PHARMACOPHORE_FEATURES>
4
1 1 acceptor
1 4 acceptor
6 2 3 5 6 7 8 rings
6 4 5 8 10 12 13 rings

>  <PUBCHEM_HEAVY_ATOM_COUNT>
13

>  <PUBCHEM_ATOM_DEF_STEREO_COUNT>
0

>  <PUBCHEM_ATOM_UDEF_STEREO_COUNT>
0

>  <PUBCHEM_BOND_DEF_STEREO_COUNT>
0

>  <PUBCHEM_BOND_UDEF_STEREO_COUNT>
0

>  <PUBCHEM_ISOTOPIC_ATOM_COUNT>
0

>  <PUBCHEM_COMPONENT_COUNT>
1

>  <PUBCHEM_CACTVS_TAUTO_COUNT>
1

>  <PUBCHEM_CONFORMER_ID>
013B88EE00000001

>  <PUBCHEM_MMFF94_ENERGY>
36.9808

>  <PUBCHEM_FEATURE_SELFOVERLAP>
20.332

>  <PUBCHEM_SHAPE_FINGERPRINT>
10608611 8 18412259553857609288
10967382 1 18194401078531114503
11206711 2 18409729564716772997
13380535 76 18265892458846619095
13897977 150 18338232640047024717
14325111 11 18410573968019340544
15775835 57 18261399884099805476
16945 1 18266458891622911044
17844478 74 18187939425073242427
193761 8 14447689338757557668
19973954 147 18410576197191607316
20510252 161 18272653462861664257
20871998 184 18200880693948823207
21040471 1 18410573985388957892
21501502 16 18410292497310963596
2334 1 18410575084779266373
23402539 116 18270104829368392567
23402655 69 18196918991089195669
23463225 33 18263079920776809890
23552423 10 18261112993274667220
23559900 14 18343306921592193046
25 1 17975124349639261973
2748010 2 18410576149867761477
5084963 1 18202562873598054883
528886 8 18338792295517761561
53812653 166 18341608162108344400
6333449 129 18411415102972745380

>  <PUBCHEM_SHAPE_MULTIPOLES>
246.72
4.68
2.15
0.59
0.14
0.31
0
-0.68
0
-0.77
0
0.01
0
0

>  <PUBCHEM_SHAPE_SELFOVERLAP>
532.532

>  <PUBCHEM_SHAPE_VOLUME>
135.2

>  <PUBCHEM_COORDINATE_TYPE>
2
5
10

$$$$
