21029971
 OpenBabel01182520543D

 31 32  0  0  0  0  0  0  0  0999 V2000
   -0.7676    2.5367   -0.9198 O   0  0  0  0  0  0  0  0  0  0  0  0
    0.4854   -0.4953   -0.0168 N   0  0  0  0  0  0  0  0  0  0  0  0
    3.3347   -0.4534   -0.1008 N   0  0  0  0  0  0  0  0  0  0  0  0
   -1.4336   -1.8578   -0.0904 N   0  0  0  0  0  0  0  0  0  0  0  0
   -0.8183    2.3943    1.3446 N   0  0  0  0  0  0  0  0  0  0  0  0
    1.2577   -1.1181    1.0623 C   0  0  0  0  0  0  0  0  0  0  0  0
    1.1794   -0.3742   -1.3051 C   0  0  0  0  0  0  0  0  0  0  0  0
    2.6350   -0.4604    1.1863 C   0  0  0  0  0  0  0  0  0  0  0  0
    2.5574    0.2646   -1.1144 C   0  0  0  0  0  0  0  0  0  0  0  0
   -0.9088   -0.6134   -0.0305 C   0  0  0  0  0  0  0  0  0  0  0  0
   -1.6656    0.5462    0.0185 C   0  0  0  0  0  0  0  0  0  0  0  0
    4.6755    0.1201    0.0348 C   0  5  0  0  0  0  0  0  0  0  0  0
   -3.0503    0.4205    0.0057 C   0  0  0  0  0  0  0  0  0  0  0  0
   -1.0704    1.8739    0.0822 C   0  0  0  0  0  0  0  0  0  0  0  0
   -2.7829   -1.9405   -0.1012 C   0  0  0  0  0  0  0  0  0  0  0  0
   -3.6275   -0.8431   -0.0552 C   0  0  0  0  0  0  0  0  0  0  0  0
    1.3662   -2.1919    0.8633 H   0  0  0  0  0  0  0  0  0  0  0  0
    0.7290   -1.0103    2.0174 H   0  0  0  0  0  0  0  0  0  0  0  0
    0.6005    0.2415   -2.0041 H   0  0  0  0  0  0  0  0  0  0  0  0
    1.2821   -1.3696   -1.7561 H   0  0  0  0  0  0  0  0  0  0  0  0
    2.5156    0.5634    1.5678 H   0  0  0  0  0  0  0  0  0  0  0  0
    3.2126   -1.0203    1.9329 H   0  0  0  0  0  0  0  0  0  0  0  0
    3.0778    0.2444   -2.0804 H   0  0  0  0  0  0  0  0  0  0  0  0
    2.4336    1.3198   -0.8329 H   0  0  0  0  0  0  0  0  0  0  0  0
    5.2224    0.0336    0.9673 H   0  0  0  0  0  0  0  0  0  0  0  0
    5.1625    0.5939   -0.8104 H   0  0  0  0  0  0  0  0  0  0  0  0
   -3.6896    1.2986    0.0423 H   0  0  0  0  0  0  0  0  0  0  0  0
   -3.1832   -2.9478   -0.1496 H   0  0  0  0  0  0  0  0  0  0  0  0
   -4.7046   -0.9651   -0.0664 H   0  0  0  0  0  0  0  0  0  0  0  0
   -1.0396    1.8833    2.1934 H   0  0  0  0  0  0  0  0  0  0  0  0
   -0.3977    3.3106    1.4567 H   0  0  0  0  0  0  0  0  0  0  0  0
  1 14  2  0  0  0  0
  2  6  1  0  0  0  0
  2  7  1  0  0  0  0
  2 10  1  0  0  0  0
  3  8  1  0  0  0  0
  3  9  1  0  0  0  0
  3 12  1  0  0  0  0
  4 10  1  0  0  0  0
  4 15  2  0  0  0  0
  5 14  1  0  0  0  0
  5 30  1  0  0  0  0
  5 31  1  0  0  0  0
  6  8  1  0  0  0  0
  6 17  1  0  0  0  0
  6 18  1  0  0  0  0
  7  9  1  0  0  0  0
  7 19  1  0  0  0  0
  7 20  1  0  0  0  0
  8 21  1  0  0  0  0
  8 22  1  0  0  0  0
  9 23  1  0  0  0  0
  9 24  1  0  0  0  0
 10 11  2  0  0  0  0
 11 13  1  0  0  0  0
 11 14  1  0  0  0  0
 12 25  1  0  0  0  0
 12 26  1  0  0  0  0
 13 16  2  0  0  0  0
 13 27  1  0  0  0  0
 15 16  1  0  0  0  0
 15 28  1  0  0  0  0
 16 29  1  0  0  0  0
M  CHG  1  12  -1
M  END
>  <PUBCHEM_COMPOUND_CID>
21029971

>  <PUBCHEM_CONFORMER_RMSD>
0.6

>  <PUBCHEM_CONFORMER_DIVERSEORDER>
1
5
13
3
12
11
16
4
7
15
6
10
8
14
2
9

>  <PUBCHEM_EFFECTIVE_ROTOR_COUNT>
3.2

>  <PUBCHEM_PHARMACOPHORE_FEATURES>
7
1 1 acceptor
1 2 cation
1 3 cation
1 4 acceptor
1 5 donor
6 2 3 6 7 8 9 rings
6 4 10 11 13 15 16 rings

>  <PUBCHEM_HEAVY_ATOM_COUNT>
16

>  <PUBCHEM_ATOM_DEF_STEREO_COUNT>
0

>  <PUBCHEM_ATOM_UDEF_STEREO_COUNT>
0

>  <PUBCHEM_BOND_DEF_STEREO_COUNT>
0

>  <PUBCHEM_BOND_UDEF_STEREO_COUNT>
0

>  <PUBCHEM_ISOTOPIC_ATOM_COUNT>
0

>  <PUBCHEM_COMPONENT_COUNT>
1

>  <PUBCHEM_CACTVS_TAUTO_COUNT>
2

>  <PUBCHEM_CONFORMER_ID>
0140E45300000001

>  <PUBCHEM_MMFF94_ENERGY>
65.4852

>  <PUBCHEM_FEATURE_SELFOVERLAP>
35.523

>  <PUBCHEM_SHAPE_FINGERPRINT>
11132069 177 18413952780099208521
11578080 2 17607771136556607965
11680986 33 17979066421221497707
12236239 1 17894910736927828982
13296909 8 18188481385606001164
13764800 53 18058453093007571585
14614273 12 18265615373221211021
15375462 189 18187089489810989019
15775835 57 18188777115436950152
16945 1 18335410245164070319
17844478 74 17418376878532461592
18175812 5 17632574993460353358
19868273 325 18411136965380757079
200 152 17676482869360895494
20344682 1 17560803246670497566
20510252 161 18341895143138046553
20905425 154 17620764220112033437
22112679 90 18336846258968895669
22802520 49 17343799088006200196
228727 97 18187939399092448342
2297311 6 18271821128760128158
23236772 104 17894631418034912986
23388829 49 17967814933581204956
23402539 116 18341888606166414087
23419403 2 18053070055982465957
23557571 272 18273221897741198478
23559900 14 18271244920348340950
2748010 2 18196074763246952225
350125 39 17691980262769221497
537710 114 18334859428793940581
5493415 88 18120376707732072555
5902787 121 18265335203941152787
6992083 37 17539119559153522002
7364860 26 17768529739837745425
77492 1 17894631452416048854
81228 2 18268730349739352033

>  <PUBCHEM_SHAPE_MULTIPOLES>
303.48
6.31
2.11
1.1
4.31
1.17
0.04
-1.55
-0.06
-1.68
0.19
0.59
0.18
-0.35

>  <PUBCHEM_SHAPE_SELFOVERLAP>
633.578

>  <PUBCHEM_SHAPE_VOLUME>
171.9

>  <PUBCHEM_COORDINATE_TYPE>
2
5
10

$$$$
