21113396
 OpenBabel01182520543D

 18 18  0  0  0  0  0  0  0  0999 V2000
   -2.7638    1.0657   -0.4042 O   0  0  0  0  0  0  0  0  0  0  0  0
    1.3888   -1.2002   -0.1978 N   0  0  0  0  0  0  0  0  0  0  0  0
    3.4746   -0.0681    0.0133 N   0  0  0  0  0  0  0  0  0  0  0  0
   -0.6690    0.0551   -0.0109 C   0  0  0  0  0  0  0  0  0  0  0  0
    0.0543    1.2251    0.1920 C   0  0  0  0  0  0  0  0  0  0  0  0
   -2.1214    0.0649   -0.0252 C   0  0  0  0  0  0  0  0  0  0  0  0
    1.4442    1.1839    0.2003 C   0  0  0  0  0  0  0  0  0  0  0  0
    0.0391   -1.1208   -0.1993 C   0  0  0  0  0  0  0  0  0  0  0  0
    2.0579   -0.0426    0.0026 C   0  0  0  0  0  0  0  0  0  0  0  0
   -2.9047   -1.1631    0.4291 C   0  0  0  0  0  0  0  0  0  0  0  0
   -0.4487    2.1756    0.3486 H   0  0  0  0  0  0  0  0  0  0  0  0
    2.0154    2.0927    0.3594 H   0  0  0  0  0  0  0  0  0  0  0  0
   -0.4569   -2.0702   -0.3749 H   0  0  0  0  0  0  0  0  0  0  0  0
   -2.3619   -1.7025    1.2100 H   0  0  0  0  0  0  0  0  0  0  0  0
   -3.0865   -1.8171   -0.4271 H   0  0  0  0  0  0  0  0  0  0  0  0
   -3.8597   -0.8405    0.8545 H   0  0  0  0  0  0  0  0  0  0  0  0
    3.9738    0.7673   -0.2662 H   0  0  0  0  0  0  0  0  0  0  0  0
    3.9189   -0.9652   -0.1378 H   0  0  0  0  0  0  0  0  0  0  0  0
  1  6  2  0  0  0  0
  2  8  1  0  0  0  0
  2  9  2  0  0  0  0
  3  9  1  0  0  0  0
  3 17  1  0  0  0  0
  3 18  1  0  0  0  0
  4  5  1  0  0  0  0
  4  6  1  0  0  0  0
  4  8  2  0  0  0  0
  5  7  2  0  0  0  0
  5 11  1  0  0  0  0
  6 10  1  0  0  0  0
  7  9  1  0  0  0  0
  7 12  1  0  0  0  0
  8 13  1  0  0  0  0
 10 14  1  0  0  0  0
 10 15  1  0  0  0  0
 10 16  1  0  0  0  0
M  END
>  <PUBCHEM_COMPOUND_CID>
21113396

>  <PUBCHEM_CONFORMER_RMSD>
0.4

>  <PUBCHEM_CONFORMER_DIVERSEORDER>
3
2
5
6
1
4

>  <PUBCHEM_MMFF94_PARTIAL_CHARGES>
15
1 -0.57
10 0.06
11 0.15
12 0.15
13 0.15
17 0.4
18 0.4
2 -0.62
3 -0.9
4 0.09
5 -0.15
6 0.42
7 -0.15
8 0.16
9 0.41

>  <PUBCHEM_EFFECTIVE_ROTOR_COUNT>
1

>  <PUBCHEM_PHARMACOPHORE_FEATURES>
4
1 1 acceptor
1 3 donor
3 2 3 9 cation
6 2 4 5 7 8 9 rings

>  <PUBCHEM_HEAVY_ATOM_COUNT>
10

>  <PUBCHEM_ATOM_DEF_STEREO_COUNT>
0

>  <PUBCHEM_ATOM_UDEF_STEREO_COUNT>
0

>  <PUBCHEM_BOND_DEF_STEREO_COUNT>
0

>  <PUBCHEM_BOND_UDEF_STEREO_COUNT>
0

>  <PUBCHEM_ISOTOPIC_ATOM_COUNT>
0

>  <PUBCHEM_COMPONENT_COUNT>
1

>  <PUBCHEM_CACTVS_TAUTO_COUNT>
9

>  <PUBCHEM_CONFORMER_ID>
01422A3400000003

>  <PUBCHEM_MMFF94_ENERGY>
33.0268

>  <PUBCHEM_FEATURE_SELFOVERLAP>
20.297

>  <PUBCHEM_SHAPE_FINGERPRINT>
10857977 72 18410567418209811331
12032990 46 18341621408051320142
12897270 3 18411981334286397197
12932764 1 17703505588179946645
14325111 11 18410292540361006248
16945 1 18273214200864398304
193761 8 17548137723433148622
19973954 147 18408887356153626925
20201158 50 18410292497580190347
21040471 1 18268707384443744620
23402655 69 18198044903843990949
23552423 10 18260269646196755663
2748010 2 18340200915968373252
29004967 10 18413392024884625091
5084963 1 18339082699926620441
528886 8 18340762663388766129

>  <PUBCHEM_SHAPE_MULTIPOLES>
189.96
4.47
1.39
0.64
0.04
0.04
-0.02
-0.42
-0.14
0.21
0
0.1
0
0.31

>  <PUBCHEM_SHAPE_SELFOVERLAP>
393.539

>  <PUBCHEM_SHAPE_VOLUME>
108.4

>  <PUBCHEM_COORDINATE_TYPE>
2
5
10

$$$$
