21221050
 OpenBabel01182520543D

 35 36  0  0  0  0  0  0  0  0999 V2000
    0.6389    1.1914   -1.6803 O   0  0  0  0  0  0  0  0  0  0  0  0
   -4.8665   -1.0813    0.4967 N   0  0  0  0  0  0  0  0  0  0  0  0
   -0.1293    1.0469    0.5045 N   0  0  0  0  0  0  0  0  0  0  0  0
    3.8368   -1.3694   -0.2654 N   0  0  0  0  0  0  0  0  0  0  0  0
    1.8820   -1.5167   -1.5986 N   0  0  0  0  0  0  0  0  0  0  0  0
   -2.4129    0.4233   -0.0838 C   0  0  0  0  0  0  0  0  0  0  0  0
   -3.8088    0.9714   -0.4066 C   0  0  0  0  0  0  0  0  0  0  0  0
   -2.5020   -0.5937    1.0611 C   0  0  0  0  0  0  0  0  0  0  0  0
   -4.8067   -0.1624   -0.6421 C   0  0  0  0  0  0  0  0  0  0  0  0
   -3.5511   -1.6658    0.7669 C   0  0  0  0  0  0  0  0  0  0  0  0
   -1.4461    1.5529    0.2600 C   0  0  0  0  0  0  0  0  0  0  0  0
    0.8245    0.9038   -0.5008 C   0  0  0  0  0  0  0  0  0  0  0  0
    2.1356    0.3393   -0.0891 C   0  0  0  0  0  0  0  0  0  0  0  0
    2.6478   -0.8331   -0.6209 C   0  0  0  0  0  0  0  0  0  0  0  0
    2.8924    1.0044    0.8691 C   0  0  0  0  0  0  0  0  0  0  0  0
    4.1210    0.4840    1.2607 C   0  0  0  0  0  0  0  0  0  0  0  0
    4.5443   -0.6950    0.6686 C   0  0  0  0  0  0  0  0  0  0  0  0
   -2.0387   -0.1022   -0.9738 H   0  0  0  0  0  0  0  0  0  0  0  0
   -4.1634    1.6021    0.4191 H   0  0  0  0  0  0  0  0  0  0  0  0
   -3.7641    1.6086   -1.2978 H   0  0  0  0  0  0  0  0  0  0  0  0
   -2.7583   -0.0826    1.9985 H   0  0  0  0  0  0  0  0  0  0  0  0
   -1.5352   -1.0855    1.2192 H   0  0  0  0  0  0  0  0  0  0  0  0
   -4.5465   -0.7119   -1.5552 H   0  0  0  0  0  0  0  0  0  0  0  0
   -5.8025    0.2658   -0.8008 H   0  0  0  0  0  0  0  0  0  0  0  0
   -3.6339   -2.3315    1.6331 H   0  0  0  0  0  0  0  0  0  0  0  0
   -3.2328   -2.2842   -0.0815 H   0  0  0  0  0  0  0  0  0  0  0  0
   -1.7657    2.0830    1.1640 H   0  0  0  0  0  0  0  0  0  0  0  0
   -1.4057    2.2810   -0.5581 H   0  0  0  0  0  0  0  0  0  0  0  0
   -5.5305   -1.8276    0.2922 H   0  0  0  0  0  0  0  0  0  0  0  0
    0.1071    0.7710    1.4533 H   0  0  0  0  0  0  0  0  0  0  0  0
    2.5408    1.9305    1.3161 H   0  0  0  0  0  0  0  0  0  0  0  0
    4.7286    0.9859    2.0050 H   0  0  0  0  0  0  0  0  0  0  0  0
    5.4953   -1.1420    0.9391 H   0  0  0  0  0  0  0  0  0  0  0  0
    2.2829   -2.3685   -1.9722 H   0  0  0  0  0  0  0  0  0  0  0  0
    0.8725   -1.4529   -1.5546 H   0  0  0  0  0  0  0  0  0  0  0  0
  1 12  2  0  0  0  0
  2  9  1  0  0  0  0
  2 10  1  0  0  0  0
  2 29  1  0  0  0  0
  3 11  1  0  0  0  0
  3 12  1  0  0  0  0
  3 30  1  0  0  0  0
  4 14  1  0  0  0  0
  4 17  2  0  0  0  0
  5 14  1  0  0  0  0
  5 34  1  0  0  0  0
  5 35  1  0  0  0  0
  6  7  1  0  0  0  0
  6  8  1  0  0  0  0
  6 11  1  0  0  0  0
  6 18  1  0  0  0  0
  7  9  1  0  0  0  0
  7 19  1  0  0  0  0
  7 20  1  0  0  0  0
  8 10  1  0  0  0  0
  8 21  1  0  0  0  0
  8 22  1  0  0  0  0
  9 23  1  0  0  0  0
  9 24  1  0  0  0  0
 10 25  1  0  0  0  0
 10 26  1  0  0  0  0
 11 27  1  0  0  0  0
 11 28  1  0  0  0  0
 12 13  1  0  0  0  0
 13 14  2  0  0  0  0
 13 15  1  0  0  0  0
 15 16  2  0  0  0  0
 15 31  1  0  0  0  0
 16 17  1  0  0  0  0
 16 32  1  0  0  0  0
 17 33  1  0  0  0  0
M  END
>  <PUBCHEM_COMPOUND_CID>
21221050

>  <PUBCHEM_CONFORMER_RMSD>
0.6

>  <PUBCHEM_CONFORMER_DIVERSEORDER>
1
93
16
105
30
85
99
41
72
28
10
91
13
88
35
14
89
15
95
39
74
75
53
46
52
12
48
94
70
83
36
59
21
104
81
82
103
38
96
40
56
49
90
60
43
27
4
31
71
55
45
22
79
54
76
51
97
87
86
26
62
84
18
9
102
44
42
29
78
5
63
25
64
73
92
20
24
11
50
8
80
61
101
7
66
57
23
34
98
58
106
69
68
67
65
17
32
6
33
100
77
2
37
47
19
3

>  <PUBCHEM_MMFF94_PARTIAL_CHARGES>
21
1 -0.57
10 0.27
11 0.3
12 0.54
13 0.09
14 0.41
15 -0.15
16 -0.15
17 0.16
2 -0.9
29 0.36
3 -0.73
30 0.37
31 0.15
32 0.15
33 0.15
34 0.4
35 0.4
4 -0.62
5 -0.9
9 0.27

>  <PUBCHEM_EFFECTIVE_ROTOR_COUNT>
5.2

>  <PUBCHEM_PHARMACOPHORE_FEATURES>
9
1 1 acceptor
1 2 cation
1 2 donor
1 3 donor
1 4 acceptor
1 5 cation
1 5 donor
6 2 6 7 8 9 10 rings
6 4 13 14 15 16 17 rings

>  <PUBCHEM_HEAVY_ATOM_COUNT>
17

>  <PUBCHEM_ATOM_DEF_STEREO_COUNT>
0

>  <PUBCHEM_ATOM_UDEF_STEREO_COUNT>
0

>  <PUBCHEM_BOND_DEF_STEREO_COUNT>
0

>  <PUBCHEM_BOND_UDEF_STEREO_COUNT>
0

>  <PUBCHEM_ISOTOPIC_ATOM_COUNT>
0

>  <PUBCHEM_COMPONENT_COUNT>
1

>  <PUBCHEM_CACTVS_TAUTO_COUNT>
5

>  <PUBCHEM_CONFORMER_ID>
0143CEBA00000001

>  <PUBCHEM_MMFF94_ENERGY>
35.9562

>  <PUBCHEM_FEATURE_SELFOVERLAP>
45.671

>  <PUBCHEM_SHAPE_FINGERPRINT>
10366900 7 18131918169445380616
12251169 10 16917064473148802868
12346177 29 18114176419955340837
12363563 72 18260276256278128849
12596602 18 15554441933655477347
13693222 15 17489869323609816225
14252887 29 17560806506946170972
14289901 80 17131830932608870529
14341114 328 15769776874812919651
14386348 63 18411419509862398731
15375358 24 18413103953117741991
15880784 105 16988561307883038503
17834072 14 18412543210761738585
1798214 20 17095237021041572506
18186145 218 12035450549088830269
19107657 162 18411984645690338602
193927 3 18186813490722330459
19862831 5 16732983137231376545
200 152 17703783713477850817
20261772 1 17846493759805351318
20279233 1 18413673508688627563
20374829 77 18187079568620969419
20432913 95 17917993880073204835
20626108 58 17822849904558088249
20645477 70 17988918925389116574
20671657 53 17748829643863484989
21501925 9 18410293622708680056
21503847 285 13686295816256957018
21652331 79 10519989262020972539
22646028 28 18040155127771734467
22854114 59 17704067395851382928
231179 274 9007059058571587804
23402539 116 18188197733265767173
23402655 69 12251904780709941482
23403322 49 18334858316455589251
23557571 272 18337103467312292845
23559900 14 18408880741830261664
25 1 10881400928699174016
251288 83 17418380194252469550
26918003 58 18341888576127893153
3060560 45 13334735722160860224
5104073 3 18059290942616690738
5281201 14 8070026696549073410
5283173 99 18267293245377843885
7471813 234 16153708704860774996
9709674 26 18271529693374352359
9882013 296 16128657448680839361

>  <PUBCHEM_SHAPE_MULTIPOLES>
324.06
10.42
1.6
1.23
3.53
0.2
-0.22
3.3
1.76
0.3
-0.07
-0.54
0.09
1.03

>  <PUBCHEM_SHAPE_SELFOVERLAP>
670.572

>  <PUBCHEM_SHAPE_VOLUME>
182.7

>  <PUBCHEM_COORDINATE_TYPE>
2
5
10

$$$$
