21281446
 OpenBabel01182520543D

 20 20  0  0  0  0  0  0  0  0999 V2000
    0.0355    2.0470   -0.4166 O   0  0  0  0  0  0  0  0  0  0  0  0
    5.5197   -0.2390    0.0769 O   0  0  0  0  0  0  0  0  0  0  0  0
    0.9562   -0.0282    0.0436 N   0  0  0  0  0  0  0  0  0  0  0  0
   -2.9008   -1.6546   -0.2565 N   0  0  0  0  0  0  0  0  0  0  0  0
    3.2281   -0.7530    0.1667 N   0  0  0  0  0  0  0  0  0  0  0  0
   -1.4571    0.2738   -0.0522 C   0  0  0  0  0  0  0  0  0  0  0  0
   -0.1240    0.8413   -0.1514 C   0  0  0  0  0  0  0  0  0  0  0  0
   -2.5435    1.0565    0.3225 C   0  0  0  0  0  0  0  0  0  0  0  0
    2.3412    0.3923   -0.0447 C   0  0  0  0  0  0  0  0  0  0  0  0
   -1.6867   -1.0644   -0.3284 C   0  0  0  0  0  0  0  0  0  0  0  0
   -3.8084    0.4852    0.4079 C   0  0  0  0  0  0  0  0  0  0  0  0
   -3.9327   -0.8623    0.1108 C   0  0  0  0  0  0  0  0  0  0  0  0
    4.3724   -0.4944    0.1215 C   0  0  0  0  0  0  0  0  0  0  0  0
    0.7950   -0.9934    0.3100 H   0  0  0  0  0  0  0  0  0  0  0  0
   -2.4229    2.1112    0.5547 H   0  0  0  0  0  0  0  0  0  0  0  0
    2.4965    1.1686    0.7153 H   0  0  0  0  0  0  0  0  0  0  0  0
    2.4884    0.8394   -1.0361 H   0  0  0  0  0  0  0  0  0  0  0  0
   -0.9017   -1.7394   -0.6531 H   0  0  0  0  0  0  0  0  0  0  0  0
   -4.6695    1.0758    0.6988 H   0  0  0  0  0  0  0  0  0  0  0  0
   -4.8977   -1.3556    0.1626 H   0  0  0  0  0  0  0  0  0  0  0  0
  1  7  2  0  0  0  0
  2 13  2  0  0  0  0
  3  7  1  0  0  0  0
  3  9  1  0  0  0  0
  3 14  1  0  0  0  0
  4 10  1  0  0  0  0
  4 12  2  0  0  0  0
  5  9  1  0  0  0  0
  5 13  2  0  0  0  0
  6  7  1  0  0  0  0
  6  8  1  0  0  0  0
  6 10  2  0  0  0  0
  8 11  2  0  0  0  0
  8 15  1  0  0  0  0
  9 16  1  0  0  0  0
  9 17  1  0  0  0  0
 10 18  1  0  0  0  0
 11 12  1  0  0  0  0
 11 19  1  0  0  0  0
 12 20  1  0  0  0  0
M  END
>  <PUBCHEM_COMPOUND_CID>
21281446

>  <PUBCHEM_CONFORMER_RMSD>
0.6

>  <PUBCHEM_CONFORMER_DIVERSEORDER>
1
47
44
19
8
42
6
27
51
38
23
4
16
50
30
21
45
28
33
18
32
5
54
24
20
37
41
52
25
7
10
48
43
12
29
14
49
17
9
39
34
22
31
35
3
53
2
46
15
40
36
11
13
26

>  <PUBCHEM_MMFF94_PARTIAL_CHARGES>
18
1 -0.57
10 0.16
11 -0.15
12 0.16
13 0.79
14 0.37
15 0.15
18 0.15
19 0.15
2 -0.49
20 0.15
3 -0.73
4 -0.62
5 -0.55
6 0.09
7 0.54
8 -0.15
9 0.55

>  <PUBCHEM_EFFECTIVE_ROTOR_COUNT>
4

>  <PUBCHEM_PHARMACOPHORE_FEATURES>
5
1 1 acceptor
1 3 donor
1 4 acceptor
1 5 acceptor
6 4 6 8 10 11 12 rings

>  <PUBCHEM_HEAVY_ATOM_COUNT>
13

>  <PUBCHEM_ATOM_DEF_STEREO_COUNT>
0

>  <PUBCHEM_ATOM_UDEF_STEREO_COUNT>
0

>  <PUBCHEM_BOND_DEF_STEREO_COUNT>
0

>  <PUBCHEM_BOND_UDEF_STEREO_COUNT>
0

>  <PUBCHEM_ISOTOPIC_ATOM_COUNT>
0

>  <PUBCHEM_COMPONENT_COUNT>
1

>  <PUBCHEM_CACTVS_TAUTO_COUNT>
2

>  <PUBCHEM_CONFORMER_ID>
0144BAA600000001

>  <PUBCHEM_MMFF94_ENERGY>
26.5808

>  <PUBCHEM_FEATURE_SELFOVERLAP>
25.373

>  <PUBCHEM_SHAPE_FINGERPRINT>
10465860 250 17775565333996555280
11046707 91 18409728469315463266
114248 4 14057003827861876362
12251169 10 18273496775426674228
124424 183 17275383205402416329
13690532 89 18410292545188684599
15375462 189 18186517687671312994
17804303 29 18272934942254433761
17834072 33 18410578426786166212
18186145 218 15792013415121314548
200 152 15430035448478361300
20279233 1 17203615877849032222
20828058 44 18272369763350083842
22485316 2 18335980896167952706
2297311 6 18202014200748947780
23402539 116 18411412899664968334
23463225 33 18409731750686470695
23559900 14 18272642493541693904

>  <PUBCHEM_SHAPE_MULTIPOLES>
240.85
9.34
1.43
0.63
11.26
0.18
0.01
-2.65
1.05
-0.94
-0.15
-0.12
0.03
-0.28

>  <PUBCHEM_SHAPE_SELFOVERLAP>
497.933

>  <PUBCHEM_SHAPE_VOLUME>
134.8

>  <PUBCHEM_COORDINATE_TYPE>
2
5
10

$$$$
