21330884
 OpenBabel01182520543D

 19 19  0  0  0  0  0  0  0  0999 V2000
   -3.6870    0.6527   -0.0115 O   0  0  0  0  0  0  0  0  0  0  0  0
    3.6654   -1.3353   -0.0029 O   0  0  0  0  0  0  0  0  0  0  0  0
    0.8691   -0.7567    0.0002 N   0  0  0  0  0  0  0  0  0  0  0  0
    2.6488    0.8008   -0.0004 N   0  0  0  0  0  0  0  0  0  0  0  0
   -3.2133   -1.5910    0.0025 N   0  0  0  0  0  0  0  0  0  0  0  0
   -1.4107    0.0480    0.0026 C   0  0  0  0  0  0  0  0  0  0  0  0
    1.2746    0.5330    0.0011 C   0  0  0  0  0  0  0  0  0  0  0  0
   -0.9548    1.3616    0.0034 C   0  0  0  0  0  0  0  0  0  0  0  0
    0.4120    1.6173    0.0026 C   0  0  0  0  0  0  0  0  0  0  0  0
   -0.4666   -0.9661    0.0010 C   0  0  0  0  0  0  0  0  0  0  0  0
   -2.8319   -0.2515    0.0034 C   0  0  0  0  0  0  0  0  0  0  0  0
    3.6945   -0.1127   -0.0022 C   0  0  0  0  0  0  0  0  0  0  0  0
   -1.6459    2.2001    0.0049 H   0  0  0  0  0  0  0  0  0  0  0  0
    0.7726    2.6409    0.0032 H   0  0  0  0  0  0  0  0  0  0  0  0
   -0.7094   -2.0211   -0.0003 H   0  0  0  0  0  0  0  0  0  0  0  0
    2.9121    1.7839    0.0000 H   0  0  0  0  0  0  0  0  0  0  0  0
   -2.5827   -2.3826    0.0095 H   0  0  0  0  0  0  0  0  0  0  0  0
   -4.2003   -1.8288   -0.0037 H   0  0  0  0  0  0  0  0  0  0  0  0
    4.6561    0.4288   -0.0030 H   0  0  0  0  0  0  0  0  0  0  0  0
  1 11  2  0  0  0  0
  2 12  2  0  0  0  0
  3  7  2  0  0  0  0
  3 10  1  0  0  0  0
  4  7  1  0  0  0  0
  4 12  1  0  0  0  0
  4 16  1  0  0  0  0
  5 11  1  0  0  0  0
  5 17  1  0  0  0  0
  5 18  1  0  0  0  0
  6  8  1  0  0  0  0
  6 10  2  0  0  0  0
  6 11  1  0  0  0  0
  7  9  1  0  0  0  0
  8  9  2  0  0  0  0
  8 13  1  0  0  0  0
  9 14  1  0  0  0  0
 10 15  1  0  0  0  0
 12 19  1  0  0  0  0
M  END
>  <PUBCHEM_COMPOUND_CID>
21330884

>  <PUBCHEM_CONFORMER_RMSD>
0.6

>  <PUBCHEM_CONFORMER_DIVERSEORDER>
1
7
8
3
4
5
2
6

>  <PUBCHEM_MMFF94_PARTIAL_CHARGES>
19
1 -0.57
10 0.16
11 0.54
12 0.57
13 0.15
14 0.15
15 0.15
16 0.37
17 0.37
18 0.37
19 0.06
2 -0.57
3 -0.62
4 -0.55
5 -0.8
6 0.09
7 0.43
8 -0.15
9 -0.15

>  <PUBCHEM_EFFECTIVE_ROTOR_COUNT>
3

>  <PUBCHEM_PHARMACOPHORE_FEATURES>
5
1 1 acceptor
1 2 acceptor
1 4 donor
1 5 donor
6 3 6 7 8 9 10 rings

>  <PUBCHEM_HEAVY_ATOM_COUNT>
12

>  <PUBCHEM_ATOM_DEF_STEREO_COUNT>
0

>  <PUBCHEM_ATOM_UDEF_STEREO_COUNT>
0

>  <PUBCHEM_BOND_DEF_STEREO_COUNT>
0

>  <PUBCHEM_BOND_UDEF_STEREO_COUNT>
0

>  <PUBCHEM_ISOTOPIC_ATOM_COUNT>
0

>  <PUBCHEM_COMPONENT_COUNT>
1

>  <PUBCHEM_CACTVS_TAUTO_COUNT>
9

>  <PUBCHEM_CONFORMER_ID>
01457BC400000001

>  <PUBCHEM_MMFF94_ENERGY>
31.5122

>  <PUBCHEM_FEATURE_SELFOVERLAP>
25.371

>  <PUBCHEM_SHAPE_FINGERPRINT>
10130415 120 18408321090400836416
10219947 1 18272371983573810844
11132069 177 18411412908302362640
11401426 45 18412255138483217597
11543360 7 15575003921801719506
11769659 78 18412259566573420278
12032990 46 18410016554247011370
12932764 1 16805590495462052293
14325111 11 18410575123317933984
16945 1 18341623602600182293
18186145 218 16588022441598198380
193761 8 17690279309385396073
20201158 50 18411420591956838927
20281407 28 18411984663118121232
22485316 2 18411415120374011208
23402539 116 18272078388188828654
23463225 33 18410013225932057230
23552423 10 18189898806212298804
23559900 14 18412259528767845832
2748010 2 18121779697058176261
53655031 270 18339081488608764425
7364860 26 18196092359865737516
8809292 202 18260553354857413763

>  <PUBCHEM_SHAPE_MULTIPOLES>
220.27
6.15
1.53
0.58
1.43
0.05
0
-1.83
-0.01
-0.14
0
0
0.02
0

>  <PUBCHEM_SHAPE_SELFOVERLAP>
459.781

>  <PUBCHEM_SHAPE_VOLUME>
121.2

>  <PUBCHEM_COORDINATE_TYPE>
2
5
10

$$$$
