21344160
 OpenBabel01182520543D

 25 25  0  0  0  0  0  0  0  0999 V2000
    2.3567   -1.5470    0.7447 O   0  0  0  0  0  0  0  0  0  0  0  0
    2.7270    0.5574   -0.2037 N   0  0  0  0  0  0  0  0  0  0  0  0
   -1.6129   -1.2193   -0.7461 N   0  0  0  0  0  0  0  0  0  0  0  0
   -3.6485   -0.1017   -0.2132 N   0  0  0  0  0  0  0  0  0  0  0  0
   -4.3135    1.0352    0.1702 N   0  0  0  0  0  0  0  0  0  0  0  0
    0.4726   -0.3774    0.1411 C   0  0  0  0  0  0  0  0  0  0  0  0
    1.9349   -0.5037    0.2470 C   0  0  0  0  0  0  0  0  0  0  0  0
   -0.2082    0.6476    0.7887 C   0  0  0  0  0  0  0  0  0  0  0  0
   -0.2693   -1.2771   -0.6073 C   0  0  0  0  0  0  0  0  0  0  0  0
   -1.5904    0.7402    0.6698 C   0  0  0  0  0  0  0  0  0  0  0  0
    4.1759    0.4632   -0.0942 C   0  0  0  0  0  0  0  0  0  0  0  0
    2.2158    1.7921   -0.7948 C   0  0  0  0  0  0  0  0  0  0  0  0
   -2.2401   -0.2094   -0.1022 C   0  0  0  0  0  0  0  0  0  0  0  0
    0.3215    1.3709    1.4028 H   0  0  0  0  0  0  0  0  0  0  0  0
    0.2050   -2.0975   -1.1375 H   0  0  0  0  0  0  0  0  0  0  0  0
   -2.0996    1.5412    1.1948 H   0  0  0  0  0  0  0  0  0  0  0  0
    4.6078    0.4897   -1.0989 H   0  0  0  0  0  0  0  0  0  0  0  0
    4.4862   -0.4610    0.3998 H   0  0  0  0  0  0  0  0  0  0  0  0
    4.5411    1.3162    0.4854 H   0  0  0  0  0  0  0  0  0  0  0  0
    2.1809    2.5597   -0.0166 H   0  0  0  0  0  0  0  0  0  0  0  0
    1.2252    1.6606   -1.2332 H   0  0  0  0  0  0  0  0  0  0  0  0
    2.8925    2.1172   -1.5913 H   0  0  0  0  0  0  0  0  0  0  0  0
   -4.1188   -0.7755   -0.8055 H   0  0  0  0  0  0  0  0  0  0  0  0
   -5.2720    0.7865    0.4103 H   0  0  0  0  0  0  0  0  0  0  0  0
   -4.3783    1.6620   -0.6309 H   0  0  0  0  0  0  0  0  0  0  0  0
  1  7  2  0  0  0  0
  2  7  1  0  0  0  0
  2 11  1  0  0  0  0
  2 12  1  0  0  0  0
  3  9  1  0  0  0  0
  3 13  2  0  0  0  0
  4  5  1  0  0  0  0
  4 13  1  0  0  0  0
  4 23  1  0  0  0  0
  5 24  1  0  0  0  0
  5 25  1  0  0  0  0
  6  7  1  0  0  0  0
  6  8  1  0  0  0  0
  6  9  2  0  0  0  0
  8 10  2  0  0  0  0
  8 14  1  0  0  0  0
  9 15  1  0  0  0  0
 10 13  1  0  0  0  0
 10 16  1  0  0  0  0
 11 17  1  0  0  0  0
 11 18  1  0  0  0  0
 11 19  1  0  0  0  0
 12 20  1  0  0  0  0
 12 21  1  0  0  0  0
 12 22  1  0  0  0  0
M  END
>  <PUBCHEM_COMPOUND_CID>
21344160

>  <PUBCHEM_CONFORMER_RMSD>
0.6

>  <PUBCHEM_CONFORMER_DIVERSEORDER>
1
6
2
7
4
3
5

>  <PUBCHEM_MMFF94_PARTIAL_CHARGES>
19
1 -0.57
10 -0.15
11 0.3
12 0.3
13 0.41
14 0.15
15 0.15
16 0.15
2 -0.66
23 0.4
24 0.36
25 0.36
3 -0.62
4 -0.51
5 -0.71
6 0.09
7 0.54
8 -0.15
9 0.16

>  <PUBCHEM_EFFECTIVE_ROTOR_COUNT>
3

>  <PUBCHEM_PHARMACOPHORE_FEATURES>
5
1 1 acceptor
1 4 donor
1 5 donor
3 3 4 13 cation
6 3 6 8 9 10 13 rings

>  <PUBCHEM_HEAVY_ATOM_COUNT>
13

>  <PUBCHEM_ATOM_DEF_STEREO_COUNT>
0

>  <PUBCHEM_ATOM_UDEF_STEREO_COUNT>
0

>  <PUBCHEM_BOND_DEF_STEREO_COUNT>
0

>  <PUBCHEM_BOND_UDEF_STEREO_COUNT>
0

>  <PUBCHEM_ISOTOPIC_ATOM_COUNT>
0

>  <PUBCHEM_COMPONENT_COUNT>
1

>  <PUBCHEM_CACTVS_TAUTO_COUNT>
3

>  <PUBCHEM_CONFORMER_ID>
0145AFA000000001

>  <PUBCHEM_MMFF94_ENERGY>
44.6032

>  <PUBCHEM_FEATURE_SELFOVERLAP>
26.917

>  <PUBCHEM_SHAPE_FINGERPRINT>
11031198 65 17748834024835284030
11062470 55 18333168358192939545
13538477 17 18271236205274160662
14325111 11 18412825781013125451
14911166 2 17704349979077426837
14993402 34 18272370875504065853
15775835 57 18409732884742518132
16945 1 18409720789945625530
18186145 218 18260265222533584119
19026448 4 17313104116694126795
20233049 118 18060136535445987528
20645464 45 15936406758032000138
20645476 183 18412544353091508639
21119208 17 18342179972784941116
23402539 116 17632853127290234924
23402655 69 17845080776575685141
23552423 10 18267577103580550318
23559900 14 17632858659883104944
528886 8 18334289907340083440
53812653 8 18131636647187099833
7364860 26 18201720605390592190

>  <PUBCHEM_SHAPE_MULTIPOLES>
241.74
6.52
1.46
0.84
1.31
0.02
-0.01
1.89
0.31
-0.41
0.16
-0.09
0.01
-0.72

>  <PUBCHEM_SHAPE_SELFOVERLAP>
495.215

>  <PUBCHEM_SHAPE_VOLUME>
140.6

>  <PUBCHEM_COORDINATE_TYPE>
2
5
10

$$$$
