21452449
 OpenBabel01182520543D

 18 19  0  0  0  0  0  0  0  0999 V2000
   -1.6650   -2.1161    0.1345 O   0  0  0  0  0  0  0  0  0  0  0  0
   -0.6809    1.8175    0.1713 N   0  0  0  0  0  0  0  0  0  0  0  0
   -2.3208    0.0871    0.0161 N   0  0  0  0  0  0  0  0  0  0  0  0
    1.6272    1.3063    0.0960 N   0  0  0  0  0  0  0  0  0  0  0  0
    0.0306   -0.4821   -0.0170 C   0  0  0  0  0  0  0  0  0  0  0  0
   -1.9940    1.4604   -0.3061 C   0  0  0  0  0  0  0  0  0  0  0  0
    0.3398    0.8789    0.0753 C   0  0  0  0  0  0  0  0  0  0  0  0
   -1.3816   -0.9266    0.0405 C   0  0  0  0  0  0  0  0  0  0  0  0
    1.0608   -1.4190   -0.1081 C   0  0  0  0  0  0  0  0  0  0  0  0
    2.3779   -0.9828   -0.1043 C   0  0  0  0  0  0  0  0  0  0  0  0
    2.6060    0.3765    0.0018 C   0  0  0  0  0  0  0  0  0  0  0  0
   -2.7534    2.1041    0.1471 H   0  0  0  0  0  0  0  0  0  0  0  0
   -2.0482    1.5683   -1.3948 H   0  0  0  0  0  0  0  0  0  0  0  0
   -0.4195    2.7942    0.2306 H   0  0  0  0  0  0  0  0  0  0  0  0
   -3.3013   -0.1713    0.0683 H   0  0  0  0  0  0  0  0  0  0  0  0
    0.8547   -2.4832   -0.1767 H   0  0  0  0  0  0  0  0  0  0  0  0
    3.2003   -1.6854   -0.1743 H   0  0  0  0  0  0  0  0  0  0  0  0
    3.6170    0.7705    0.0163 H   0  0  0  0  0  0  0  0  0  0  0  0
  1  8  2  0  0  0  0
  2  6  1  0  0  0  0
  2  7  1  0  0  0  0
  2 14  1  0  0  0  0
  3  6  1  0  0  0  0
  3  8  1  0  0  0  0
  3 15  1  0  0  0  0
  4  7  1  0  0  0  0
  4 11  2  0  0  0  0
  5  7  2  0  0  0  0
  5  8  1  0  0  0  0
  5  9  1  0  0  0  0
  6 12  1  0  0  0  0
  6 13  1  0  0  0  0
  9 10  2  0  0  0  0
  9 16  1  0  0  0  0
 10 11  1  0  0  0  0
 10 17  1  0  0  0  0
 11 18  1  0  0  0  0
M  END
>  <PUBCHEM_COMPOUND_CID>
21452449

>  <PUBCHEM_CONFORMER_RMSD>
0.4

>  <PUBCHEM_CONFORMER_DIVERSEORDER>
1

>  <PUBCHEM_MMFF94_PARTIAL_CHARGES>
16
1 -0.57
10 -0.15
11 0.16
14 0.4
15 0.37
16 0.15
17 0.15
18 0.15
2 -0.87
3 -0.73
4 -0.62
5 0.09
6 0.67
7 0.41
8 0.54
9 -0.15

>  <PUBCHEM_EFFECTIVE_ROTOR_COUNT>
0.6

>  <PUBCHEM_PHARMACOPHORE_FEATURES>
7
1 1 acceptor
1 2 cation
1 2 donor
1 3 donor
1 4 acceptor
6 2 3 5 6 7 8 rings
6 4 5 7 9 10 11 rings

>  <PUBCHEM_HEAVY_ATOM_COUNT>
11

>  <PUBCHEM_ATOM_DEF_STEREO_COUNT>
0

>  <PUBCHEM_ATOM_UDEF_STEREO_COUNT>
0

>  <PUBCHEM_BOND_DEF_STEREO_COUNT>
0

>  <PUBCHEM_BOND_UDEF_STEREO_COUNT>
0

>  <PUBCHEM_ISOTOPIC_ATOM_COUNT>
0

>  <PUBCHEM_COMPONENT_COUNT>
1

>  <PUBCHEM_CACTVS_TAUTO_COUNT>
5

>  <PUBCHEM_CONFORMER_ID>
014756A100000001

>  <PUBCHEM_MMFF94_ENERGY>
32.7871

>  <PUBCHEM_FEATURE_SELFOVERLAP>
35.585

>  <PUBCHEM_SHAPE_FINGERPRINT>
12423570 1 17343206429584657519
12524768 44 18341898450231358806
12897270 3 18411138077766659382
16945 1 18410856525438358724
193761 8 18266458896076426229
19973954 147 18410295830374390396
21040471 1 18266177232094566412
23552423 10 18260551160012788366
23559900 14 18198629831514285454
241688 4 15167979642257572211
2748010 2 18267583696328917572
5084963 1 17914325788754763105
528886 8 18412258458524534082
66348 1 18050005493488978522

>  <PUBCHEM_SHAPE_MULTIPOLES>
205.56
3.39
1.99
0.6
0.6
0.24
0.01
-0.11
0.13
-0.6
-0.05
0.01
-0.01
0.16

>  <PUBCHEM_SHAPE_SELFOVERLAP>
444.832

>  <PUBCHEM_SHAPE_VOLUME>
110.2

>  <PUBCHEM_COORDINATE_TYPE>
2
5
10

$$$$
