21472602
 OpenBabel01182520543D

 37 37  0  0  0  0  0  0  0  0999 V2000
   -0.6346    0.2674    1.8206 O   0  0  0  0  0  0  0  0  0  0  0  0
   -0.5531    1.5756   -0.0936 N   0  0  0  0  0  0  0  0  0  0  0  0
   -4.5408    0.4697   -0.8407 N   0  0  0  0  0  0  0  0  0  0  0  0
   -6.2041   -1.2357   -0.8017 N   0  0  0  0  0  0  0  0  0  0  0  0
    3.8472   -0.1428   -0.3114 C   0  0  0  0  0  0  0  0  0  0  0  0
    0.7409    2.1500    0.1452 C   0  0  0  0  0  0  0  0  0  0  0  0
    5.9268   -1.5398    0.2336 C   0  0  0  0  0  0  0  0  0  0  0  0
    4.7779   -0.6212    0.5407 C   0  0  0  0  0  0  0  0  0  0  0  0
    2.7863    0.7157    0.2178 C   0  0  0  0  0  0  0  0  0  0  0  0
    1.7837    1.2775   -0.4775 C   0  0  0  0  0  0  0  0  0  0  0  0
   -2.4760    0.1443    0.3741 C   0  0  0  0  0  0  0  0  0  0  0  0
   -1.1450    0.6667    0.7773 C   0  0  0  0  0  0  0  0  0  0  0  0
    3.8465   -0.4288   -1.7904 C   0  0  0  0  0  0  0  0  0  0  0  0
    7.1742   -0.7604   -0.1501 C   0  0  0  0  0  0  0  0  0  0  0  0
   -2.9139   -1.1054    0.7982 C   0  0  0  0  0  0  0  0  0  0  0  0
   -3.3196    0.8862   -0.4369 C   0  0  0  0  0  0  0  0  0  0  0  0
   -4.1642   -1.5686    0.4037 C   0  0  0  0  0  0  0  0  0  0  0  0
   -4.9323   -0.7501   -0.4087 C   0  0  0  0  0  0  0  0  0  0  0  0
    0.8937    2.2758    1.2223 H   0  0  0  0  0  0  0  0  0  0  0  0
    0.7579    3.1393   -0.3226 H   0  0  0  0  0  0  0  0  0  0  0  0
    5.6669   -2.2475   -0.5606 H   0  0  0  0  0  0  0  0  0  0  0  0
    6.1342   -2.1493    1.1212 H   0  0  0  0  0  0  0  0  0  0  0  0
    4.7164   -0.3413    1.5927 H   0  0  0  0  0  0  0  0  0  0  0  0
    2.8236    0.9083    1.2895 H   0  0  0  0  0  0  0  0  0  0  0  0
    1.6997    1.1246   -1.5503 H   0  0  0  0  0  0  0  0  0  0  0  0
   -1.0026    1.8101   -0.9726 H   0  0  0  0  0  0  0  0  0  0  0  0
    3.8940    0.5033   -2.3644 H   0  0  0  0  0  0  0  0  0  0  0  0
    4.6998   -1.0325   -2.1107 H   0  0  0  0  0  0  0  0  0  0  0  0
    2.9407   -0.9743   -2.0767 H   0  0  0  0  0  0  0  0  0  0  0  0
    8.0046   -1.4478   -0.3408 H   0  0  0  0  0  0  0  0  0  0  0  0
    7.4779   -0.0790    0.6518 H   0  0  0  0  0  0  0  0  0  0  0  0
    7.0120   -0.1684   -1.0570 H   0  0  0  0  0  0  0  0  0  0  0  0
   -2.2931   -1.7327    1.4321 H   0  0  0  0  0  0  0  0  0  0  0  0
   -3.0685    1.8809   -0.7897 H   0  0  0  0  0  0  0  0  0  0  0  0
   -4.5124   -2.5430    0.7305 H   0  0  0  0  0  0  0  0  0  0  0  0
   -6.7594   -0.6369   -1.4002 H   0  0  0  0  0  0  0  0  0  0  0  0
   -6.3380   -2.2372   -0.8685 H   0  0  0  0  0  0  0  0  0  0  0  0
  1 12  2  0  0  0  0
  2  6  1  0  0  0  0
  2 12  1  0  0  0  0
  2 26  1  0  0  0  0
  3 16  1  0  0  0  0
  3 18  2  0  0  0  0
  4 18  1  0  0  0  0
  4 36  1  0  0  0  0
  4 37  1  0  0  0  0
  5  8  2  0  0  0  0
  5  9  1  0  0  0  0
  5 13  1  0  0  0  0
  6 10  1  0  0  0  0
  6 19  1  0  0  0  0
  6 20  1  0  0  0  0
  7  8  1  0  0  0  0
  7 14  1  0  0  0  0
  7 21  1  0  0  0  0
  7 22  1  0  0  0  0
  8 23  1  0  0  0  0
  9 10  2  0  0  0  0
  9 24  1  0  0  0  0
 10 25  1  0  0  0  0
 11 12  1  0  0  0  0
 11 15  1  0  0  0  0
 11 16  2  0  0  0  0
 13 27  1  0  0  0  0
 13 28  1  0  0  0  0
 13 29  1  0  0  0  0
 14 30  1  0  0  0  0
 14 31  1  0  0  0  0
 14 32  1  0  0  0  0
 15 17  2  0  0  0  0
 15 33  1  0  0  0  0
 16 34  1  0  0  0  0
 17 18  1  0  0  0  0
 17 35  1  0  0  0  0
M  END
>  <PUBCHEM_COMPOUND_CID>
21472602

>  <PUBCHEM_CONFORMER_RMSD>
0.8

>  <PUBCHEM_CONFORMER_DIVERSEORDER>
1
70
4
41
67
36
21
39
72
23
34
71
38
52
62
37
35
69
54
49
12
57
74
27
28
68
48
33
30
15
20
43
73
51
59
61
45
40
11
60
13
58
75
63
5
42
55
50
25
66
8
32
29
56
10
17
3
6
44
46
14
18
65
19
2
7
24
64
53
26
16
47
22
31
9

>  <PUBCHEM_MMFF94_PARTIAL_CHARGES>
26
1 -0.57
10 -0.29
11 0.09
12 0.54
13 0.14
15 -0.15
16 0.16
17 -0.15
18 0.41
2 -0.73
23 0.15
24 0.15
25 0.15
26 0.37
3 -0.62
33 0.15
34 0.15
35 0.15
36 0.4
37 0.4
4 -0.9
5 -0.14
6 0.44
7 0.14
8 -0.29
9 -0.15

>  <PUBCHEM_EFFECTIVE_ROTOR_COUNT>
6

>  <PUBCHEM_PHARMACOPHORE_FEATURES>
7
1 1 acceptor
1 13 hydrophobe
1 14 hydrophobe
1 2 donor
1 4 donor
3 3 4 18 cation
6 3 11 15 16 17 18 rings

>  <PUBCHEM_HEAVY_ATOM_COUNT>
18

>  <PUBCHEM_ATOM_DEF_STEREO_COUNT>
0

>  <PUBCHEM_ATOM_UDEF_STEREO_COUNT>
0

>  <PUBCHEM_BOND_DEF_STEREO_COUNT>
2

>  <PUBCHEM_BOND_UDEF_STEREO_COUNT>
0

>  <PUBCHEM_ISOTOPIC_ATOM_COUNT>
0

>  <PUBCHEM_COMPONENT_COUNT>
1

>  <PUBCHEM_CACTVS_TAUTO_COUNT>
5

>  <PUBCHEM_CONFORMER_ID>
0147A55A00000001

>  <PUBCHEM_MMFF94_ENERGY>
38.7373

>  <PUBCHEM_FEATURE_SELFOVERLAP>
35.521

>  <PUBCHEM_SHAPE_FINGERPRINT>
100836 57 8934998175042248816
10354089 29 13326853332128612426
10447042 23 18335417963885134518
10613725 11 17022620858075120334
106641 1 13542455492786378871
10670039 82 15140950730132422215
10753850 27 18409727361351161650
12363563 72 18340501009971235844
12555020 224 18333726949171728507
12596602 18 13902191469621650926
12760667 363 18411984654607301521
12892183 10 15625954075594795640
12954195 1 18188198815877224205
13177829 20 14836115589602764574
13288520 33 18410573981283933685
14123256 34 18341621408272892254
1420 369 17775575238096044799
14251751 18 18341611572180781195
14251752 14 17313096424080600156
14251764 75 11598566244534839266
14341114 328 14979952605816369752
14848160 23 18343578538822335114
15183329 4 15864066555694582530
15188451 53 17775564234379419054
15352361 1 18410013221742656386
15510800 12 18201453492194234918
17834072 8 17458060469355687243
17870717 6 17894914027268189347
18222031 100 18130516283894242828
193927 3 18201733863273750196
19784866 240 18411704291694960377
200 152 18343300362016731832
20281389 69 10087634893527224894
20374829 77 18335138678729892888
20403669 9 18413675716064623031
20526848 3 8142086485204876894
20645477 70 18342177820726958885
21267235 1 18187366558609994867
212847 35 7997974553336411884
21637258 2 18060131063899920471
22224240 67 11959727179358169269
23198884 109 15285358405602467018
23253445 4 14476963397707597665
23403322 49 18407761430123279929
23559900 14 18262233446920957217
2838139 119 11746935421406912562
2916195 48 8358246039309551086
3004659 81 17894346683795209328
3009799 131 14851609882635540164
312425 54 16271663207844276286
32948 21 17603862304037141341
351380 3 18413386536307057686
44062 13 18261675982094492467
449060 50 10015597107509201089
559249 180 18411698756125505609
59682541 35 16486683762212825246
59682541 52 15936407823922737970
76465 3 18412825806440239209
7808743 9 9583509911202273300
960060 61 17603309267205550524

>  <PUBCHEM_SHAPE_MULTIPOLES>
349.62
16.14
1.72
1.14
10.35
0.32
-0.07
-10.01
-3.11
-0.23
0.07
0.11
-0.08
-0.06

>  <PUBCHEM_SHAPE_SELFOVERLAP>
706.178

>  <PUBCHEM_SHAPE_VOLUME>
203.4

>  <PUBCHEM_COORDINATE_TYPE>
2
5
10

$$$$
