21521594
 OpenBabel01182520543D

 40 40  0  0  0  0  0  0  0  0999 V2000
    0.1034   -0.4322   -1.7261 O   0  0  0  0  0  0  0  0  0  0  0  0
    3.1457    0.4916    0.1410 N   0  0  0  0  0  0  0  0  0  0  0  0
    0.1787   -1.5852    0.2854 N   0  0  0  0  0  0  0  0  0  0  0  0
   -3.4793    0.1713    1.2502 N   0  0  0  0  0  0  0  0  0  0  0  0
   -5.6407    0.8623    0.5238 N   0  0  0  0  0  0  0  0  0  0  0  0
    2.5881   -0.0653    1.3675 C   0  0  0  0  0  0  0  0  0  0  0  0
    2.4326   -1.5866    1.2863 C   0  0  0  0  0  0  0  0  0  0  0  0
    3.2267    1.9509    0.2274 C   0  0  0  0  0  0  0  0  0  0  0  0
    4.4686   -0.0750   -0.1278 C   0  0  0  0  0  0  0  0  0  0  0  0
    1.5259   -2.0688    0.1557 C   0  0  0  0  0  0  0  0  0  0  0  0
    1.8708    2.5664    0.5052 C   0  0  0  0  0  0  0  0  0  0  0  0
    5.0384    0.4409   -1.4329 C   0  0  0  0  0  0  0  0  0  0  0  0
   -0.4314   -0.7941   -0.6814 C   0  0  0  0  0  0  0  0  0  0  0  0
   -1.8190   -0.3536   -0.3858 C   0  0  0  0  0  0  0  0  0  0  0  0
   -2.6821   -0.0754   -1.4177 C   0  0  0  0  0  0  0  0  0  0  0  0
   -2.2317   -0.2257    0.9128 C   0  0  0  0  0  0  0  0  0  0  0  0
   -3.9743    0.3360   -1.1106 C   0  0  0  0  0  0  0  0  0  0  0  0
   -4.3203    0.4425    0.2269 C   0  0  0  0  0  0  0  0  0  0  0  0
    3.2159    0.1815    2.2342 H   0  0  0  0  0  0  0  0  0  0  0  0
    1.5907    0.3332    1.5776 H   0  0  0  0  0  0  0  0  0  0  0  0
    1.9913   -1.9155    2.2379 H   0  0  0  0  0  0  0  0  0  0  0  0
    3.3987   -2.0992    1.2389 H   0  0  0  0  0  0  0  0  0  0  0  0
    3.9419    2.2758    0.9935 H   0  0  0  0  0  0  0  0  0  0  0  0
    3.5528    2.3732   -0.7288 H   0  0  0  0  0  0  0  0  0  0  0  0
    5.1728    0.1246    0.6899 H   0  0  0  0  0  0  0  0  0  0  0  0
    4.4130   -1.1599   -0.2542 H   0  0  0  0  0  0  0  0  0  0  0  0
    1.9397   -1.8029   -0.8221 H   0  0  0  0  0  0  0  0  0  0  0  0
    1.4653   -3.1623    0.1911 H   0  0  0  0  0  0  0  0  0  0  0  0
    1.9137    3.6458    0.3193 H   0  0  0  0  0  0  0  0  0  0  0  0
    1.5596    2.4464    1.5476 H   0  0  0  0  0  0  0  0  0  0  0  0
    1.0937    2.1568   -0.1494 H   0  0  0  0  0  0  0  0  0  0  0  0
    4.3114    0.3712   -2.2496 H   0  0  0  0  0  0  0  0  0  0  0  0
    5.3904    1.4744   -1.3579 H   0  0  0  0  0  0  0  0  0  0  0  0
    5.9074   -0.1625   -1.7192 H   0  0  0  0  0  0  0  0  0  0  0  0
   -0.3464   -1.9090    1.0909 H   0  0  0  0  0  0  0  0  0  0  0  0
   -2.3866   -0.1713   -2.4579 H   0  0  0  0  0  0  0  0  0  0  0  0
   -1.5898   -0.4001    1.7687 H   0  0  0  0  0  0  0  0  0  0  0  0
   -4.6780    0.5609   -1.9054 H   0  0  0  0  0  0  0  0  0  0  0  0
   -6.1189    1.4559   -0.1427 H   0  0  0  0  0  0  0  0  0  0  0  0
   -5.8873    0.9445    1.5024 H   0  0  0  0  0  0  0  0  0  0  0  0
  1 13  2  0  0  0  0
  2  6  1  0  0  0  0
  2  8  1  0  0  0  0
  2  9  1  0  0  0  0
  3 10  1  0  0  0  0
  3 13  1  0  0  0  0
  3 35  1  0  0  0  0
  4 16  1  0  0  0  0
  4 18  2  0  0  0  0
  5 18  1  0  0  0  0
  5 39  1  0  0  0  0
  5 40  1  0  0  0  0
  6  7  1  0  0  0  0
  6 19  1  0  0  0  0
  6 20  1  0  0  0  0
  7 10  1  0  0  0  0
  7 21  1  0  0  0  0
  7 22  1  0  0  0  0
  8 11  1  0  0  0  0
  8 23  1  0  0  0  0
  8 24  1  0  0  0  0
  9 12  1  0  0  0  0
  9 25  1  0  0  0  0
  9 26  1  0  0  0  0
 10 27  1  0  0  0  0
 10 28  1  0  0  0  0
 11 29  1  0  0  0  0
 11 30  1  0  0  0  0
 11 31  1  0  0  0  0
 12 32  1  0  0  0  0
 12 33  1  0  0  0  0
 12 34  1  0  0  0  0
 13 14  1  0  0  0  0
 14 15  1  0  0  0  0
 14 16  2  0  0  0  0
 15 17  2  0  0  0  0
 15 36  1  0  0  0  0
 16 37  1  0  0  0  0
 17 18  1  0  0  0  0
 17 38  1  0  0  0  0
M  END
>  <PUBCHEM_COMPOUND_CID>
21521594

>  <PUBCHEM_CONFORMER_RMSD>
0.8

>  <PUBCHEM_CONFORMER_DIVERSEORDER>
3
77
112
4
110
51
55
103
42
8
101
29
97
111
92
58
109
98
14
49
44
88
50
16
78
113
5
85
94
102
45
104
34
74
60
9
108
89
23
91
12
53
81
13
99
100
105
39
11
107
70
24
48
86
106
75
25
95
65
21
56
82
93
87
67
36
47
35
83
20
59
63
69
7
73
64
52
43
32
79
90
46
30
19
68
37
96
41
2
57
33
84
6
76
26
10
66
38
72
18
80
17
40
61
31
54
27
28
15
71
1
62
22

>  <PUBCHEM_MMFF94_PARTIAL_CHARGES>
21
1 -0.57
10 0.3
13 0.54
14 0.09
15 -0.15
16 0.16
17 -0.15
18 0.41
2 -0.81
3 -0.73
35 0.37
36 0.15
37 0.15
38 0.15
39 0.4
4 -0.62
40 0.4
5 -0.9
6 0.27
8 0.27
9 0.27

>  <PUBCHEM_EFFECTIVE_ROTOR_COUNT>
8

>  <PUBCHEM_PHARMACOPHORE_FEATURES>
6
1 1 acceptor
1 2 cation
1 3 donor
1 5 donor
3 4 5 18 cation
6 4 14 15 16 17 18 rings

>  <PUBCHEM_HEAVY_ATOM_COUNT>
18

>  <PUBCHEM_ATOM_DEF_STEREO_COUNT>
0

>  <PUBCHEM_ATOM_UDEF_STEREO_COUNT>
0

>  <PUBCHEM_BOND_DEF_STEREO_COUNT>
0

>  <PUBCHEM_BOND_UDEF_STEREO_COUNT>
0

>  <PUBCHEM_ISOTOPIC_ATOM_COUNT>
0

>  <PUBCHEM_COMPONENT_COUNT>
1

>  <PUBCHEM_CACTVS_TAUTO_COUNT>
5

>  <PUBCHEM_CONFORMER_ID>
014864BA00000003

>  <PUBCHEM_MMFF94_ENERGY>
38.5501

>  <PUBCHEM_FEATURE_SELFOVERLAP>
30.446

>  <PUBCHEM_SHAPE_FINGERPRINT>
10354089 29 18412263930370833121
10366900 7 18040712588962744673
11615757 297 18341325660723977675
12633257 1 18040984150986131842
12670545 47 17822282539394097767
14251751 18 14117511065003220148
14252887 29 15068624851088949266
14341114 328 14057004962049805996
14787075 74 13190633779748281814
14863182 85 8142089797215499816
1813 80 17555179051928245758
18186145 218 18341886433202832872
20645476 183 17846489361769597751
21033648 29 17677034794470988917
21041028 32 18048301264042164658
21503847 285 18272090508892824120
231179 274 18335135397601511218
23253445 4 15863793906448501359
251288 83 13117997799655006738
2637199 183 18411423929668517870
3060560 45 18202559575691120630
32948 21 15410898439701160379
33382 64 9006187198208540469
347723 3 18341897377502371594
4325135 7 18271806852711050031
449060 50 17530685398440288406
474 4 18272369771918977915
4990 188 12895067418950298123
633830 44 18272645796339506148
6442390 28 17313673762549373818
8272917 22 18340205193866621835
9882013 296 16805604788976167290
9981440 41 16622053628254182728

>  <PUBCHEM_SHAPE_MULTIPOLES>
344.64
10.45
1.87
1.44
4.18
0.39
0.25
3.63
0.57
-1.95
-0.49
-0.07
-0.07
-0.35

>  <PUBCHEM_SHAPE_SELFOVERLAP>
689.095

>  <PUBCHEM_SHAPE_VOLUME>
204.1

>  <PUBCHEM_COORDINATE_TYPE>
2
5
10

$$$$
