21521592
 OpenBabel01182520543D

 40 40  0  0  1  0  0  0  0  0999 V2000
   -0.3488   -0.8290    1.6733 O   0  0  0  0  0  0  0  0  0  0  0  0
    3.6385   -0.1426    0.1285 N   0  0  0  0  0  0  0  0  0  0  0  0
    0.0849    0.8736    0.1590 N   0  0  0  0  0  0  0  0  0  0  0  0
   -4.0578    1.1589   -0.4886 N   0  0  0  0  0  0  0  0  0  0  0  0
   -6.1436    0.0355   -0.7405 N   0  0  0  0  0  0  0  0  0  0  0  0
    2.3231    0.0622   -0.4800 C   0  0  1  0  0  0  0  0  0  0  0  0
    1.4949    0.9810    0.4215 C   0  0  0  0  0  0  0  0  0  0  0  0
    4.3580    1.1264    0.2266 C   0  0  0  0  0  0  0  0  0  0  0  0
    4.4129   -1.1119   -0.6449 C   0  0  0  0  0  0  0  0  0  0  0  0
    2.5120    0.6457   -1.8796 C   0  0  0  0  0  0  0  0  0  0  0  0
    5.7023    0.9439    0.9106 C   0  0  0  0  0  0  0  0  0  0  0  0
    3.6787   -2.4374   -0.7564 C   0  0  0  0  0  0  0  0  0  0  0  0
   -0.7330   -0.0368    0.8171 C   0  0  0  0  0  0  0  0  0  0  0  0
   -2.1627   -0.0413    0.4135 C   0  0  0  0  0  0  0  0  0  0  0  0
   -2.9395   -1.1875    0.5399 C   0  0  0  0  0  0  0  0  0  0  0  0
   -2.7638    1.0959   -0.1018 C   0  0  0  0  0  0  0  0  0  0  0  0
   -4.2747   -1.1621    0.1527 C   0  0  0  0  0  0  0  0  0  0  0  0
   -4.7813    0.0253   -0.3508 C   0  0  0  0  0  0  0  0  0  0  0  0
    1.7721   -0.8812   -0.5517 H   0  0  0  0  0  0  0  0  0  0  0  0
    1.6532    0.7346    1.4789 H   0  0  0  0  0  0  0  0  0  0  0  0
    1.7468    2.0377    0.2795 H   0  0  0  0  0  0  0  0  0  0  0  0
    3.8097    1.8490    0.8391 H   0  0  0  0  0  0  0  0  0  0  0  0
    4.5648    1.5971   -0.7399 H   0  0  0  0  0  0  0  0  0  0  0  0
    5.3307   -1.3536   -0.0961 H   0  0  0  0  0  0  0  0  0  0  0  0
    4.7421   -0.7603   -1.6284 H   0  0  0  0  0  0  0  0  0  0  0  0
    1.5252    0.7147   -2.3573 H   0  0  0  0  0  0  0  0  0  0  0  0
    3.1039    0.0265   -2.5575 H   0  0  0  0  0  0  0  0  0  0  0  0
    2.8992    1.6686   -1.8935 H   0  0  0  0  0  0  0  0  0  0  0  0
   -0.2870    1.4569   -0.5829 H   0  0  0  0  0  0  0  0  0  0  0  0
    5.6090    0.3750    1.8421 H   0  0  0  0  0  0  0  0  0  0  0  0
    6.4386    0.4534    0.2664 H   0  0  0  0  0  0  0  0  0  0  0  0
    6.1188    1.9243    1.1692 H   0  0  0  0  0  0  0  0  0  0  0  0
    3.2634   -2.7584    0.2053 H   0  0  0  0  0  0  0  0  0  0  0  0
    2.8788   -2.4140   -1.5028 H   0  0  0  0  0  0  0  0  0  0  0  0
    4.3793   -3.2161   -1.0796 H   0  0  0  0  0  0  0  0  0  0  0  0
   -2.5204   -2.1094    0.9338 H   0  0  0  0  0  0  0  0  0  0  0  0
   -2.2392    2.0395   -0.2084 H   0  0  0  0  0  0  0  0  0  0  0  0
   -4.8870   -2.0529    0.2483 H   0  0  0  0  0  0  0  0  0  0  0  0
   -6.5629   -0.8327   -1.0497 H   0  0  0  0  0  0  0  0  0  0  0  0
   -6.5081    0.9034   -1.1136 H   0  0  0  0  0  0  0  0  0  0  0  0
  1 13  2  0  0  0  0
  2  6  1  0  0  0  0
  2  8  1  0  0  0  0
  2  9  1  0  0  0  0
  3  7  1  0  0  0  0
  3 13  1  0  0  0  0
  3 29  1  0  0  0  0
  4 16  1  0  0  0  0
  4 18  2  0  0  0  0
  5 18  1  0  0  0  0
  5 39  1  0  0  0  0
  5 40  1  0  0  0  0
  6  7  1  0  0  0  0
  6 10  1  0  0  0  0
  6 19  1  6  0  0  0
  7 20  1  0  0  0  0
  7 21  1  0  0  0  0
  8 11  1  0  0  0  0
  8 22  1  0  0  0  0
  8 23  1  0  0  0  0
  9 12  1  0  0  0  0
  9 24  1  0  0  0  0
  9 25  1  0  0  0  0
 10 26  1  0  0  0  0
 10 27  1  0  0  0  0
 10 28  1  0  0  0  0
 11 30  1  0  0  0  0
 11 31  1  0  0  0  0
 11 32  1  0  0  0  0
 12 33  1  0  0  0  0
 12 34  1  0  0  0  0
 12 35  1  0  0  0  0
 13 14  1  0  0  0  0
 14 15  1  0  0  0  0
 14 16  2  0  0  0  0
 15 17  2  0  0  0  0
 15 36  1  0  0  0  0
 16 37  1  0  0  0  0
 17 18  1  0  0  0  0
 17 38  1  0  0  0  0
M  END
>  <PUBCHEM_COMPOUND_CID>
21521592

>  <PUBCHEM_CONFORMER_RMSD>
0.8

>  <PUBCHEM_CONFORMER_DIVERSEORDER>
1
101
42
64
105
38
22
47
77
86
102
63
33
10
91
12
26
2
52
103
68
23
61
78
28
93
74
13
50
35
96
53
55
97
25
9
45
27
94
79
5
57
48
4
34
8
32
54
49
31
70
81
58
89
65
7
104
92
69
15
95
85
6
60
59
3
51
67
100
20
39
29
11
17
76
18
90
21
14
44
82
72
24
37
71
88
66
40
84
99
16
46
30
75
56
87
62
41
19
80
83
73
43
98
36

>  <PUBCHEM_MMFF94_PARTIAL_CHARGES>
21
1 -0.57
13 0.54
14 0.09
15 -0.15
16 0.16
17 -0.15
18 0.41
2 -0.81
29 0.37
3 -0.73
36 0.15
37 0.15
38 0.15
39 0.4
4 -0.62
40 0.4
5 -0.9
6 0.27
7 0.3
8 0.27
9 0.27

>  <PUBCHEM_EFFECTIVE_ROTOR_COUNT>
7

>  <PUBCHEM_PHARMACOPHORE_FEATURES>
6
1 1 acceptor
1 2 cation
1 3 donor
1 5 donor
3 4 5 18 cation
6 4 14 15 16 17 18 rings

>  <PUBCHEM_HEAVY_ATOM_COUNT>
18

>  <PUBCHEM_ATOM_DEF_STEREO_COUNT>
0

>  <PUBCHEM_ATOM_UDEF_STEREO_COUNT>
1

>  <PUBCHEM_BOND_DEF_STEREO_COUNT>
0

>  <PUBCHEM_BOND_UDEF_STEREO_COUNT>
0

>  <PUBCHEM_ISOTOPIC_ATOM_COUNT>
0

>  <PUBCHEM_COMPONENT_COUNT>
1

>  <PUBCHEM_CACTVS_TAUTO_COUNT>
5

>  <PUBCHEM_CONFORMER_ID>
014864B800000001

>  <PUBCHEM_MMFF94_ENERGY>
46.4131

>  <PUBCHEM_FEATURE_SELFOVERLAP>
30.446

>  <PUBCHEM_SHAPE_FINGERPRINT>
10366900 7 14908183070766300942
10447042 23 17917706890247671198
11045977 3 9799687104110281143
11401426 45 18187643626079997153
11458722 120 15502366829612452848
12236239 1 16443339901195930825
12616971 3 13479132419093194835
12815109 37 18343581867190010864
12916748 109 17676211264466892513
13073987 5 18202287974548545121
13081056 2 8718828682419966954
13533116 47 17846499197339605070
13583140 156 18130785715217938406
14123238 8 17489870457444135601
14573314 32 18408041788445462468
15375358 24 18334580165878426874
17834072 14 18412266125378722010
17834072 8 18040156192876326519
18186145 218 16732988651636919261
18222031 100 13542458761166794617
19433438 28 10087644792593320842
200 152 17561082505908274369
20279233 1 18412270557711073088
20645477 70 18059577945343184174
212847 35 14418135123501591076
21365058 113 8069756260303445834
21503847 285 9007057955208331886
21652331 79 8718823171892913519
22224240 67 18059283367001242368
22485316 2 18272652359065364902
23035841 295 13254803455582763868
23402539 116 17967525809172800925
23557571 272 18260541217058613836
23559900 14 18337673121857154856
239999 70 17989213646820428182
2838139 119 15285898279424991527
3004659 81 18335985277261727190
33824 294 18343584032470914310
4340502 62 18060410336107203410
4990 188 18187366532085907955
5104073 3 18200600202456073514
5283173 99 18338795607112295584
633830 44 17312824913544242535
67856867 119 17824265014952717708
9709674 26 18334304192443917266
9971528 1 17968098608113927732
9999458 23 8502654809980706328

>  <PUBCHEM_SHAPE_MULTIPOLES>
344.64
13.26
1.6
1.17
3.57
0.81
-0.15
0.21
-1.43
-1.46
-0.13
-0.52
-0.01
1.06

>  <PUBCHEM_SHAPE_SELFOVERLAP>
692.463

>  <PUBCHEM_SHAPE_VOLUME>
203.2

>  <PUBCHEM_COORDINATE_TYPE>
2
5
10

$$$$
