21521575
 OpenBabel01182520543D

 38 39  0  0  1  0  0  0  0  0999 V2000
    0.9027   -2.2109    0.8957 O   0  0  0  0  0  0  0  0  0  0  0  0
   -3.8249    0.7614    0.3306 N   0  0  0  0  0  0  0  0  0  0  0  0
    0.0372   -0.9001   -0.8118 N   0  0  0  0  0  0  0  0  0  0  0  0
    3.8228    0.9049   -1.1409 N   0  0  0  0  0  0  0  0  0  0  0  0
    5.7580    1.7522   -0.0395 N   0  0  0  0  0  0  0  0  0  0  0  0
   -2.2562   -0.9081    0.0189 C   0  0  2  0  0  0  0  0  0  0  0  0
   -3.6371   -1.5654   -0.0420 C   0  0  0  0  0  0  0  0  0  0  0  0
   -2.5306    0.5527   -0.3191 C   0  0  0  0  0  0  0  0  0  0  0  0
   -4.6316   -0.4064   -0.0297 C   0  0  0  0  0  0  0  0  0  0  0  0
   -1.2359   -1.5539   -0.9036 C   0  0  0  0  0  0  0  0  0  0  0  0
   -4.4511    2.0146   -0.0632 C   0  0  0  0  0  0  0  0  0  0  0  0
   -5.8012    2.1928    0.6001 C   0  0  0  0  0  0  0  0  0  0  0  0
    1.0198   -1.2872    0.0947 C   0  0  0  0  0  0  0  0  0  0  0  0
    2.2742   -0.4915    0.0829 C   0  0  0  0  0  0  0  0  0  0  0  0
    3.0636   -0.3810    1.2222 C   0  0  0  0  0  0  0  0  0  0  0  0
    2.6941    0.1647   -1.0631 C   0  0  0  0  0  0  0  0  0  0  0  0
    4.2320    0.3717    1.1814 C   0  0  0  0  0  0  0  0  0  0  0  0
    4.5643    0.9893   -0.0136 C   0  0  0  0  0  0  0  0  0  0  0  0
   -1.8932   -0.9657    1.0556 H   0  0  0  0  0  0  0  0  0  0  0  0
   -3.7698   -2.1716   -0.9451 H   0  0  0  0  0  0  0  0  0  0  0  0
   -3.7802   -2.2202    0.8251 H   0  0  0  0  0  0  0  0  0  0  0  0
   -1.7612    1.2151    0.0913 H   0  0  0  0  0  0  0  0  0  0  0  0
   -2.5898    0.7066   -1.4046 H   0  0  0  0  0  0  0  0  0  0  0  0
   -5.4331   -0.5931    0.6923 H   0  0  0  0  0  0  0  0  0  0  0  0
   -5.0772   -0.3053   -1.0278 H   0  0  0  0  0  0  0  0  0  0  0  0
   -1.5568   -1.4942   -1.9495 H   0  0  0  0  0  0  0  0  0  0  0  0
   -1.1170   -2.6137   -0.6513 H   0  0  0  0  0  0  0  0  0  0  0  0
   -3.8060    2.8477    0.2415 H   0  0  0  0  0  0  0  0  0  0  0  0
   -4.5708    2.0825   -1.1519 H   0  0  0  0  0  0  0  0  0  0  0  0
    0.1783   -0.0896   -1.4053 H   0  0  0  0  0  0  0  0  0  0  0  0
   -6.1878    3.1962    0.3912 H   0  0  0  0  0  0  0  0  0  0  0  0
   -5.7298    2.0872    1.6881 H   0  0  0  0  0  0  0  0  0  0  0  0
   -6.5432    1.4782    0.2301 H   0  0  0  0  0  0  0  0  0  0  0  0
    2.7819   -0.8708    2.1504 H   0  0  0  0  0  0  0  0  0  0  0  0
    2.1533    0.1090   -2.0019 H   0  0  0  0  0  0  0  0  0  0  0  0
    4.8529    0.4626    2.0667 H   0  0  0  0  0  0  0  0  0  0  0  0
    6.0782    2.1756    0.8228 H   0  0  0  0  0  0  0  0  0  0  0  0
    5.9937    2.2066   -0.9131 H   0  0  0  0  0  0  0  0  0  0  0  0
  1 13  2  0  0  0  0
  2  8  1  0  0  0  0
  2  9  1  0  0  0  0
  2 11  1  0  0  0  0
  3 10  1  0  0  0  0
  3 13  1  0  0  0  0
  3 30  1  0  0  0  0
  4 16  1  0  0  0  0
  4 18  2  0  0  0  0
  5 18  1  0  0  0  0
  5 37  1  0  0  0  0
  5 38  1  0  0  0  0
  6  7  1  0  0  0  0
  6  8  1  0  0  0  0
  6 10  1  0  0  0  0
  6 19  1  1  0  0  0
  7  9  1  0  0  0  0
  7 20  1  0  0  0  0
  7 21  1  0  0  0  0
  8 22  1  0  0  0  0
  8 23  1  0  0  0  0
  9 24  1  0  0  0  0
  9 25  1  0  0  0  0
 10 26  1  0  0  0  0
 10 27  1  0  0  0  0
 11 12  1  0  0  0  0
 11 28  1  0  0  0  0
 11 29  1  0  0  0  0
 12 31  1  0  0  0  0
 12 32  1  0  0  0  0
 12 33  1  0  0  0  0
 13 14  1  0  0  0  0
 14 15  1  0  0  0  0
 14 16  2  0  0  0  0
 15 17  2  0  0  0  0
 15 34  1  0  0  0  0
 16 35  1  0  0  0  0
 17 18  1  0  0  0  0
 17 36  1  0  0  0  0
M  END
>  <PUBCHEM_COMPOUND_CID>
21521575

>  <PUBCHEM_CONFORMER_RMSD>
0.8

>  <PUBCHEM_CONFORMER_DIVERSEORDER>
1
50
61
69
41
52
59
43
49
15
27
90
23
84
70
64
53
17
42
21
63
58
28
82
39
57
40
20
85
31
24
45
81
22
38
35
62
33
30
60
48
87
83
6
56
25
9
44
29
51
74
71
47
34
65
10
46
72
18
32
78
12
36
68
88
66
14
4
26
5
79
55
77
19
75
16
3
80
89
37
7
91
54
11
73
8
67
76
13
2
86

>  <PUBCHEM_MMFF94_PARTIAL_CHARGES>
21
1 -0.57
10 0.3
11 0.27
13 0.54
14 0.09
15 -0.15
16 0.16
17 -0.15
18 0.41
2 -0.81
3 -0.73
30 0.37
34 0.15
35 0.15
36 0.15
37 0.4
38 0.4
4 -0.62
5 -0.9
8 0.27
9 0.27

>  <PUBCHEM_EFFECTIVE_ROTOR_COUNT>
6

>  <PUBCHEM_PHARMACOPHORE_FEATURES>
7
1 1 acceptor
1 2 cation
1 3 donor
1 5 donor
3 4 5 18 cation
5 2 6 7 8 9 rings
6 4 14 15 16 17 18 rings

>  <PUBCHEM_HEAVY_ATOM_COUNT>
18

>  <PUBCHEM_ATOM_DEF_STEREO_COUNT>
0

>  <PUBCHEM_ATOM_UDEF_STEREO_COUNT>
1

>  <PUBCHEM_BOND_DEF_STEREO_COUNT>
0

>  <PUBCHEM_BOND_UDEF_STEREO_COUNT>
0

>  <PUBCHEM_ISOTOPIC_ATOM_COUNT>
0

>  <PUBCHEM_COMPONENT_COUNT>
1

>  <PUBCHEM_CACTVS_TAUTO_COUNT>
5

>  <PUBCHEM_CONFORMER_ID>
014864A700000001

>  <PUBCHEM_MMFF94_ENERGY>
41.5292

>  <PUBCHEM_FEATURE_SELFOVERLAP>
35.521

>  <PUBCHEM_SHAPE_FINGERPRINT>
10354089 29 17676204702110064716
10378564 45 17631741461110408540
10465860 228 18334292029223232818
10498660 4 17989207023316310337
11046707 91 8502378836260956999
12107183 9 17974276630200176019
12390115 104 18202014209396735731
12596602 18 17530685407589444761
12633257 1 16226053322393085892
14178000 29 10159700200851766850
1420 369 10953747694279246297
14251764 30 11022953211649117149
14251764 75 18198069080077906065
14252887 29 15502646088575982002
14341114 328 17967529086169472977
15188451 53 12901553472639937169
15209294 21 18334292080351065543
15475509 8 18114197307024685428
15778101 99 18412831282787071337
17834072 32 18342459227337568525
18186145 218 16271928250571381462
19377110 9 18113624508347542915
20374829 77 8502654809748317899
20388580 30 9799394638243987067
20645477 56 17774725375816898519
20645477 70 15769510789141803198
21065198 48 18260823804410514843
212847 35 18272366452077965930
22289505 5 17418376883281421504
23403322 49 8502653714526369685
23557571 272 17703513319031623415
23559900 14 17985547745619698943
23590187 135 11097857397349445356
25122255 55 11098120133753531384
26918003 58 12829477164727841471
270888 7 18342176614389995697
2916195 48 18200870807340153248
341906 21 18343575244202663177
3472631 163 18343302582509815725
351380 3 9439401332965288253
38570 142 16879659148592807316
4028521 119 17704072901793741139
465052 167 8646188381985582585
474 4 17967534592307107095
5104073 3 18187366497990154699
59682541 52 16701751445231088460
633830 44 18409164402992941822
636775 72 17979915236052357288
76465 3 9007052465944494483
7808743 9 18412823620317495545
960060 61 12895348906484785408

>  <PUBCHEM_SHAPE_MULTIPOLES>
344.64
13.16
2.13
1.04
1.62
0.3
-0.03
9.76
-1.42
1.89
-0.13
-0.89
-0.05
-0.79

>  <PUBCHEM_SHAPE_SELFOVERLAP>
711.747

>  <PUBCHEM_SHAPE_VOLUME>
198.6

>  <PUBCHEM_COORDINATE_TYPE>
2
5
10

$$$$
