21551407
 OpenBabel01182520543D

 26 26  0  0  0  0  0  0  0  0999 V2000
    0.9013   -1.0395    1.4688 O   0  0  0  0  0  0  0  0  0  0  0  0
    1.6305    0.4176   -0.1815 N   0  0  0  0  0  0  0  0  0  0  0  0
   -2.9416   -0.6142   -0.4902 N   0  0  0  0  0  0  0  0  0  0  0  0
   -1.2056   -2.2154   -0.2817 N   0  0  0  0  0  0  0  0  0  0  0  0
    3.0433    0.1958    0.0096 C   0  0  0  0  0  0  0  0  0  0  0  0
    3.8260    1.4632   -0.3084 C   0  0  0  0  0  0  0  0  0  0  0  0
    3.5203   -0.9755   -0.8399 C   0  0  0  0  0  0  0  0  0  0  0  0
    0.6654   -0.2292    0.5764 C   0  0  0  0  0  0  0  0  0  0  0  0
   -0.7461    0.0881    0.2387 C   0  0  0  0  0  0  0  0  0  0  0  0
   -1.6524   -0.8740   -0.1769 C   0  0  0  0  0  0  0  0  0  0  0  0
   -1.1916    1.4014    0.3396 C   0  0  0  0  0  0  0  0  0  0  0  0
   -2.5111    1.7081    0.0258 C   0  0  0  0  0  0  0  0  0  0  0  0
   -3.3385    0.6735   -0.3803 C   0  0  0  0  0  0  0  0  0  0  0  0
    3.2104   -0.0556    1.0640 H   0  0  0  0  0  0  0  0  0  0  0  0
    1.3375    1.0266   -0.9405 H   0  0  0  0  0  0  0  0  0  0  0  0
    4.8967    1.3171   -0.1321 H   0  0  0  0  0  0  0  0  0  0  0  0
    3.6901    1.7640   -1.3533 H   0  0  0  0  0  0  0  0  0  0  0  0
    3.4895    2.2950    0.3201 H   0  0  0  0  0  0  0  0  0  0  0  0
    3.3581   -0.7838   -1.9066 H   0  0  0  0  0  0  0  0  0  0  0  0
    2.9768   -1.8919   -0.5849 H   0  0  0  0  0  0  0  0  0  0  0  0
    4.5880   -1.1625   -0.6850 H   0  0  0  0  0  0  0  0  0  0  0  0
   -0.5245    2.1953    0.6649 H   0  0  0  0  0  0  0  0  0  0  0  0
   -2.8806    2.7245    0.0981 H   0  0  0  0  0  0  0  0  0  0  0  0
   -4.3763    0.8601   -0.6359 H   0  0  0  0  0  0  0  0  0  0  0  0
   -0.2363   -2.3860   -0.5195 H   0  0  0  0  0  0  0  0  0  0  0  0
   -1.8905   -2.8975   -0.5843 H   0  0  0  0  0  0  0  0  0  0  0  0
  1  8  2  0  0  0  0
  2  5  1  0  0  0  0
  2  8  1  0  0  0  0
  2 15  1  0  0  0  0
  3 10  1  0  0  0  0
  3 13  2  0  0  0  0
  4 10  1  0  0  0  0
  4 25  1  0  0  0  0
  4 26  1  0  0  0  0
  5  6  1  0  0  0  0
  5  7  1  0  0  0  0
  5 14  1  0  0  0  0
  6 16  1  0  0  0  0
  6 17  1  0  0  0  0
  6 18  1  0  0  0  0
  7 19  1  0  0  0  0
  7 20  1  0  0  0  0
  7 21  1  0  0  0  0
  8  9  1  0  0  0  0
  9 10  2  0  0  0  0
  9 11  1  0  0  0  0
 11 12  2  0  0  0  0
 11 22  1  0  0  0  0
 12 13  1  0  0  0  0
 12 23  1  0  0  0  0
 13 24  1  0  0  0  0
M  END
>  <PUBCHEM_COMPOUND_CID>
21551407

>  <PUBCHEM_CONFORMER_RMSD>
0.6

>  <PUBCHEM_CONFORMER_DIVERSEORDER>
1
6
3
4
5
2
8
7

>  <PUBCHEM_MMFF94_PARTIAL_CHARGES>
17
1 -0.57
10 0.41
11 -0.15
12 -0.15
13 0.16
15 0.37
2 -0.73
22 0.15
23 0.15
24 0.15
25 0.4
26 0.4
3 -0.62
4 -0.9
5 0.3
8 0.54
9 0.09

>  <PUBCHEM_EFFECTIVE_ROTOR_COUNT>
3

>  <PUBCHEM_PHARMACOPHORE_FEATURES>
7
1 1 acceptor
1 2 donor
1 3 acceptor
1 4 cation
1 4 donor
3 5 6 7 hydrophobe
6 3 9 10 11 12 13 rings

>  <PUBCHEM_HEAVY_ATOM_COUNT>
13

>  <PUBCHEM_ATOM_DEF_STEREO_COUNT>
0

>  <PUBCHEM_ATOM_UDEF_STEREO_COUNT>
0

>  <PUBCHEM_BOND_DEF_STEREO_COUNT>
0

>  <PUBCHEM_BOND_UDEF_STEREO_COUNT>
0

>  <PUBCHEM_ISOTOPIC_ATOM_COUNT>
0

>  <PUBCHEM_COMPONENT_COUNT>
1

>  <PUBCHEM_CACTVS_TAUTO_COUNT>
5

>  <PUBCHEM_CONFORMER_ID>
0148D92F00000001

>  <PUBCHEM_MMFF94_ENERGY>
37.4396

>  <PUBCHEM_FEATURE_SELFOVERLAP>
35.52

>  <PUBCHEM_SHAPE_FINGERPRINT>
11031198 65 16877947092254076194
12119455 92 14056988443320670787
12716758 59 18343018891292654090
12932764 1 17822006471944899012
13024252 1 17240203265920137777
14325111 11 18411420592162534724
14993402 34 18335133172813882829
15669948 3 18340759442195130942
15775835 57 18186802439565898684
16945 1 18339065069312613281
18186145 218 18114183021246176268
19873495 37 18114188509871716675
20201158 50 17560806493934935094
20279233 1 17346590885700230818
20361792 2 14261632824473860544
20645476 183 18260823774546190671
20645477 56 18411982476927377296
20653085 51 18335713719031979432
20871999 31 18270952570356045151
22802520 49 18202002161343687274
23402539 116 18272359850254555980
23552423 10 18121490251033893827
23557571 272 18198635521464477670
23559900 14 18130504155170076426
2748010 2 17836065042576932939
53812653 8 18409442562365026457
69090 78 18413387631201646622
93112 12 18341337725598296724
9709674 26 18272376377695146398

>  <PUBCHEM_SHAPE_MULTIPOLES>
246.72
6.36
1.77
0.86
3.8
0.18
-0.16
-1.56
1.7
-0.39
0.09
0.23
0.17
-0.11

>  <PUBCHEM_SHAPE_SELFOVERLAP>
503.36

>  <PUBCHEM_SHAPE_VOLUME>
142.6

>  <PUBCHEM_COORDINATE_TYPE>
2
5
10

$$$$
