21568183
 OpenBabel01182520543D

 27 28  0  0  0  0  0  0  0  0999 V2000
    0.4337   -3.0157   -0.0926 O   0  0  0  0  0  0  0  0  0  0  0  0
   -0.6847    0.8233    0.2905 N   0  0  0  0  0  0  0  0  0  0  0  0
   -1.2590   -1.4812   -0.0383 N   0  0  0  0  0  0  0  0  0  0  0  0
   -2.9252    0.1117    0.0954 N   0  0  0  0  0  0  0  0  0  0  0  0
    1.6315    1.5454    0.1787 N   0  0  0  0  0  0  0  0  0  0  0  0
   -1.0343    2.2261    0.4986 C   0  0  0  0  0  0  0  0  0  0  0  0
    0.7016    0.5532    0.1509 C   0  0  0  0  0  0  0  0  0  0  0  0
   -1.5902   -0.2219    0.1160 C   0  0  0  0  0  0  0  0  0  0  0  0
    1.0943   -0.7779   -0.0155 C   0  0  0  0  0  0  0  0  0  0  0  0
   -1.2656    2.9100   -0.8353 C   0  0  0  0  0  0  0  0  0  0  0  0
    0.0678   -1.8454   -0.0468 C   0  0  0  0  0  0  0  0  0  0  0  0
    2.4489   -1.0947   -0.1465 C   0  0  0  0  0  0  0  0  0  0  0  0
    3.3926   -0.0797   -0.1149 C   0  0  0  0  0  0  0  0  0  0  0  0
    2.9364    1.2132    0.0474 C   0  0  0  0  0  0  0  0  0  0  0  0
   -3.9480   -0.8666   -0.0874 C   0  0  0  0  0  0  0  0  0  0  0  0
   -1.9339    2.3104    1.1193 H   0  0  0  0  0  0  0  0  0  0  0  0
   -0.2667    2.7642    1.0688 H   0  0  0  0  0  0  0  0  0  0  0  0
   -0.3623    2.8967   -1.4541 H   0  0  0  0  0  0  0  0  0  0  0  0
   -2.0647    2.4268   -1.4061 H   0  0  0  0  0  0  0  0  0  0  0  0
   -1.5494    3.9556   -0.6787 H   0  0  0  0  0  0  0  0  0  0  0  0
    2.7818   -2.1205   -0.2758 H   0  0  0  0  0  0  0  0  0  0  0  0
   -3.2267    1.0771    0.1599 H   0  0  0  0  0  0  0  0  0  0  0  0
    4.4501   -0.2939   -0.2154 H   0  0  0  0  0  0  0  0  0  0  0  0
    3.6288    2.0479    0.0784 H   0  0  0  0  0  0  0  0  0  0  0  0
   -3.8450   -1.3729   -1.0526 H   0  0  0  0  0  0  0  0  0  0  0  0
   -4.9315   -0.3863   -0.0686 H   0  0  0  0  0  0  0  0  0  0  0  0
   -3.9298   -1.6142    0.7121 H   0  0  0  0  0  0  0  0  0  0  0  0
  1 11  2  0  0  0  0
  2  6  1  0  0  0  0
  2  7  1  0  0  0  0
  2  8  1  0  0  0  0
  3  8  2  0  0  0  0
  3 11  1  0  0  0  0
  4  8  1  0  0  0  0
  4 15  1  0  0  0  0
  4 22  1  0  0  0  0
  5  7  1  0  0  0  0
  5 14  2  0  0  0  0
  6 10  1  0  0  0  0
  6 16  1  0  0  0  0
  6 17  1  0  0  0  0
  7  9  2  0  0  0  0
  9 11  1  0  0  0  0
  9 12  1  0  0  0  0
 10 18  1  0  0  0  0
 10 19  1  0  0  0  0
 10 20  1  0  0  0  0
 12 13  2  0  0  0  0
 12 21  1  0  0  0  0
 13 14  1  0  0  0  0
 13 23  1  0  0  0  0
 14 24  1  0  0  0  0
 15 25  1  0  0  0  0
 15 26  1  0  0  0  0
 15 27  1  0  0  0  0
M  END
>  <PUBCHEM_COMPOUND_CID>
21568183

>  <PUBCHEM_CONFORMER_RMSD>
0.6

>  <PUBCHEM_CONFORMER_DIVERSEORDER>
1
2

>  <PUBCHEM_MMFF94_PARTIAL_CHARGES>
18
1 -0.57
11 0.69
12 -0.15
13 -0.15
14 0.16
15 0.37
2 -0.52
21 0.15
22 0.4
23 0.15
24 0.15
3 -0.66
4 -0.82
5 -0.62
6 0.37
7 0.41
8 0.55
9 0.09

>  <PUBCHEM_EFFECTIVE_ROTOR_COUNT>
2

>  <PUBCHEM_PHARMACOPHORE_FEATURES>
6
1 1 acceptor
1 3 donor
1 4 donor
1 5 acceptor
6 2 3 7 8 9 11 rings
6 5 7 9 12 13 14 rings

>  <PUBCHEM_HEAVY_ATOM_COUNT>
15

>  <PUBCHEM_ATOM_DEF_STEREO_COUNT>
0

>  <PUBCHEM_ATOM_UDEF_STEREO_COUNT>
0

>  <PUBCHEM_BOND_DEF_STEREO_COUNT>
0

>  <PUBCHEM_BOND_UDEF_STEREO_COUNT>
0

>  <PUBCHEM_ISOTOPIC_ATOM_COUNT>
0

>  <PUBCHEM_COMPONENT_COUNT>
1

>  <PUBCHEM_CACTVS_TAUTO_COUNT>
3

>  <PUBCHEM_CONFORMER_ID>
01491AB700000001

>  <PUBCHEM_MMFF94_ENERGY>
45.0554

>  <PUBCHEM_FEATURE_SELFOVERLAP>
30.523

>  <PUBCHEM_SHAPE_FINGERPRINT>
10967382 1 18339361980085371914
11132069 177 18201151143675666226
11206711 2 18338522919506160940
11471102 20 18411696586966580663
12032990 46 18338242664569356307
12423570 1 16476303509258089014
13140716 1 18339359798326687330
13380535 21 17979083686457270961
13380535 76 18048589326802290448
14251717 144 18340764940143627527
14614273 12 18263078816923014989
15042514 8 18338233890099376930
16945 1 18410575041798048874
193761 8 18050849914245546955
20510252 161 18272369754786926216
20511035 2 17481146030209227509
20588541 1 18269558402169736056
21501502 16 18120374259152028593
2334 1 18123470745883874866
23402539 116 18270953652265810342
23419403 2 15738725403723945371
23463225 33 18409449219116013715
23559900 14 17912091547960361910
238 59 16093441998230487661
2748010 2 18195813087721576266
353137 74 18409725140768679881
5084963 1 18131634452469296074
528886 8 18340483473282052434
537710 114 18337679735995799989
589210 1 18050005485104726799

>  <PUBCHEM_SHAPE_MULTIPOLES>
282.9
4.86
2.89
0.67
0.93
0.44
0.03
-0.37
0.17
0.64
0.35
0.07
0.2
0.19

>  <PUBCHEM_SHAPE_SELFOVERLAP>
601.938

>  <PUBCHEM_SHAPE_VOLUME>
155.3

>  <PUBCHEM_COORDINATE_TYPE>
2
5
10

$$$$
