21568271
 OpenBabel01182520543D

 18 19  0  0  0  0  0  0  0  0999 V2000
    1.1036   -2.6239   -0.0003 O   0  0  0  0  0  0  0  0  0  0  0  0
    0.9714    1.3765   -0.0006 N   0  0  0  0  0  0  0  0  0  0  0  0
   -1.4510    1.3764   -0.0005 N   0  0  0  0  0  0  0  0  0  0  0  0
    2.2501   -0.6390    0.0008 N   0  0  0  0  0  0  0  0  0  0  0  0
    1.0472    2.7573    0.0003 N   0  0  0  0  0  0  0  0  0  0  0  0
   -0.2719    0.7037   -0.0006 C   0  0  0  0  0  0  0  0  0  0  0  0
   -0.2284   -0.6976   -0.0004 C   0  0  0  0  0  0  0  0  0  0  0  0
   -1.4219   -1.4198    0.0002 C   0  0  0  0  0  0  0  0  0  0  0  0
    1.0913   -1.3968   -0.0004 C   0  0  0  0  0  0  0  0  0  0  0  0
    2.1298    0.6513    0.0005 C   0  0  0  0  0  0  0  0  0  0  0  0
   -2.6296   -0.7354    0.0007 C   0  0  0  0  0  0  0  0  0  0  0  0
   -2.5907    0.6474    0.0003 C   0  0  0  0  0  0  0  0  0  0  0  0
   -1.4288   -2.5057    0.0005 H   0  0  0  0  0  0  0  0  0  0  0  0
    3.0443    1.2688    0.0014 H   0  0  0  0  0  0  0  0  0  0  0  0
   -3.5735   -1.2684    0.0013 H   0  0  0  0  0  0  0  0  0  0  0  0
   -3.5074    1.2282    0.0005 H   0  0  0  0  0  0  0  0  0  0  0  0
    0.5502    3.1173   -0.8134 H   0  0  0  0  0  0  0  0  0  0  0  0
    0.5563    3.1159    0.8185 H   0  0  0  0  0  0  0  0  0  0  0  0
  1  9  2  0  0  0  0
  2  5  1  0  0  0  0
  2  6  1  0  0  0  0
  2 10  1  0  0  0  0
  3  6  1  0  0  0  0
  3 12  2  0  0  0  0
  4  9  1  0  0  0  0
  4 10  2  0  0  0  0
  5 17  1  0  0  0  0
  5 18  1  0  0  0  0
  6  7  2  0  0  0  0
  7  8  1  0  0  0  0
  7  9  1  0  0  0  0
  8 11  2  0  0  0  0
  8 13  1  0  0  0  0
 10 14  1  0  0  0  0
 11 12  1  0  0  0  0
 11 15  1  0  0  0  0
 12 16  1  0  0  0  0
M  END
>  <PUBCHEM_COMPOUND_CID>
21568271

>  <PUBCHEM_CONFORMER_RMSD>
0.4

>  <PUBCHEM_CONFORMER_DIVERSEORDER>
1

>  <PUBCHEM_MMFF94_PARTIAL_CHARGES>
18
1 -0.57
10 0.44
11 -0.15
12 0.16
13 0.15
14 0.06
15 0.15
16 0.15
17 0.36
18 0.36
2 -0.16
3 -0.62
4 -0.66
5 -0.71
6 0.41
7 0.09
8 -0.15
9 0.69

>  <PUBCHEM_EFFECTIVE_ROTOR_COUNT>
0

>  <PUBCHEM_PHARMACOPHORE_FEATURES>
6
1 1 acceptor
1 3 acceptor
1 4 donor
1 5 donor
6 2 4 6 7 9 10 rings
6 3 6 7 8 11 12 rings

>  <PUBCHEM_HEAVY_ATOM_COUNT>
12

>  <PUBCHEM_ATOM_DEF_STEREO_COUNT>
0

>  <PUBCHEM_ATOM_UDEF_STEREO_COUNT>
0

>  <PUBCHEM_BOND_DEF_STEREO_COUNT>
0

>  <PUBCHEM_BOND_UDEF_STEREO_COUNT>
0

>  <PUBCHEM_ISOTOPIC_ATOM_COUNT>
0

>  <PUBCHEM_COMPONENT_COUNT>
1

>  <PUBCHEM_CACTVS_TAUTO_COUNT>
1

>  <PUBCHEM_CONFORMER_ID>
01491B0F00000001

>  <PUBCHEM_MMFF94_ENERGY>
35.4753

>  <PUBCHEM_FEATURE_SELFOVERLAP>
30.474

>  <PUBCHEM_SHAPE_FINGERPRINT>
12423570 1 11469494385117036922
12524768 44 18126850382808733183
16945 1 18410573993978821031
17990270 104 18410292488832058707
18185500 45 18339361855436446226
193761 8 18410855477624535589
19973954 147 18410577322610104481
21040471 1 17906172111234255328
2334 1 17906171007496141095
23463225 33 18335133160018606106
23552423 10 18409448124189510087
23559900 14 18270414871232918364
241688 4 17978230456748957699
2748010 2 18122905326455860927
5084963 1 18059017322702672979
528886 8 18339074998892035635
63268167 104 18338238150495164929
66348 1 18267867177034275811

>  <PUBCHEM_SHAPE_MULTIPOLES>
221.16
3.31
2.45
0.58
1.07
0.11
0
0.16
0
-0.98
0
0.03
-0.01
0

>  <PUBCHEM_SHAPE_SELFOVERLAP>
482.326

>  <PUBCHEM_SHAPE_VOLUME>
117.7

>  <PUBCHEM_COORDINATE_TYPE>
2
5
10

$$$$
