21850029
 OpenBabel01182520543D

 17 17  0  0  0  0  0  0  0  0999 V2000
    2.7059    0.5196    0.2932 O   0  0  0  0  0  0  0  0  0  0  0  0
   -2.0302    0.4149    0.0655 N   0  0  0  0  0  0  0  0  0  0  0  0
    1.4958   -1.8735   -0.1135 N   0  0  0  0  0  0  0  0  0  0  0  0
   -0.7646    2.4147   -0.0437 N   0  0  0  0  0  0  0  0  0  0  0  0
    0.3803    0.2972   -0.0798 C   0  0  0  0  0  0  0  0  0  0  0  0
    0.3214   -1.0917   -0.0541 C   0  0  0  0  0  0  0  0  0  0  0  0
   -0.8135    0.9981   -0.0180 C   0  0  0  0  0  0  0  0  0  0  0  0
   -0.9119   -1.7283    0.0314 C   0  0  0  0  0  0  0  0  0  0  0  0
   -2.0477   -0.9367    0.0883 C   0  0  0  0  0  0  0  0  0  0  0  0
    1.6645    0.9856   -0.1692 C   0  0  0  0  0  0  0  0  0  0  0  0
   -0.9960   -2.8097    0.0539 H   0  0  0  0  0  0  0  0  0  0  0  0
   -3.0339   -1.3843    0.1557 H   0  0  0  0  0  0  0  0  0  0  0  0
    1.6765    1.9762   -0.6526 H   0  0  0  0  0  0  0  0  0  0  0  0
    1.4265   -2.8827   -0.0960 H   0  0  0  0  0  0  0  0  0  0  0  0
    2.4053   -1.4408   -0.1941 H   0  0  0  0  0  0  0  0  0  0  0  0
    0.0081    2.8774    0.4192 H   0  0  0  0  0  0  0  0  0  0  0  0
   -1.6601    2.8884   -0.0181 H   0  0  0  0  0  0  0  0  0  0  0  0
  1 10  2  0  0  0  0
  2  7  2  0  0  0  0
  2  9  1  0  0  0  0
  3  6  1  0  0  0  0
  3 14  1  0  0  0  0
  3 15  1  0  0  0  0
  4  7  1  0  0  0  0
  4 16  1  0  0  0  0
  4 17  1  0  0  0  0
  5  6  2  0  0  0  0
  5  7  1  0  0  0  0
  5 10  1  0  0  0  0
  6  8  1  0  0  0  0
  8  9  2  0  0  0  0
  8 11  1  0  0  0  0
  9 12  1  0  0  0  0
 10 13  1  0  0  0  0
M  END
>  <PUBCHEM_COMPOUND_CID>
21850029

>  <PUBCHEM_CONFORMER_RMSD>
0.4

>  <PUBCHEM_CONFORMER_DIVERSEORDER>
2
1
3

>  <PUBCHEM_MMFF94_PARTIAL_CHARGES>
17
1 -0.57
10 0.42
11 0.15
12 0.15
13 0.06
14 0.4
15 0.4
16 0.4
17 0.4
2 -0.62
3 -0.9
4 -0.9
5 0.09
6 0.1
7 0.41
8 -0.15
9 0.16

>  <PUBCHEM_EFFECTIVE_ROTOR_COUNT>
1

>  <PUBCHEM_PHARMACOPHORE_FEATURES>
6
1 1 acceptor
1 3 cation
1 3 donor
1 4 donor
3 2 4 7 cation
6 2 5 6 7 8 9 rings

>  <PUBCHEM_HEAVY_ATOM_COUNT>
10

>  <PUBCHEM_ATOM_DEF_STEREO_COUNT>
0

>  <PUBCHEM_ATOM_UDEF_STEREO_COUNT>
0

>  <PUBCHEM_BOND_DEF_STEREO_COUNT>
0

>  <PUBCHEM_BOND_UDEF_STEREO_COUNT>
0

>  <PUBCHEM_ISOTOPIC_ATOM_COUNT>
0

>  <PUBCHEM_COMPONENT_COUNT>
1

>  <PUBCHEM_CACTVS_TAUTO_COUNT>
13

>  <PUBCHEM_CONFORMER_ID>
014D67AD00000002

>  <PUBCHEM_MMFF94_ENERGY>
47.1043

>  <PUBCHEM_FEATURE_SELFOVERLAP>
30.446

>  <PUBCHEM_SHAPE_FINGERPRINT>
12423570 1 11078823923401814291
16945 1 18410295830195009828
18185500 45 18266459999761546127
193761 8 18194402182459119823
21040471 1 18410297981973703124
23552423 10 18261117378457648358
241688 4 18192438476024239353
2748010 2 18265900163791185917
5084963 1 17626676251116599859
66348 1 17977384928038584598

>  <PUBCHEM_SHAPE_MULTIPOLES>
184.98
2.73
2.17
0.59
0.79
0.32
-0.01
-0.15
0.19
-0.13
-0.06
0.01
-0.01
0.01

>  <PUBCHEM_SHAPE_SELFOVERLAP>
389.063

>  <PUBCHEM_SHAPE_VOLUME>
103.3

>  <PUBCHEM_COORDINATE_TYPE>
2
5
10

$$$$
