22028988
 OpenBabel01182520543D

 29 30  0  0  0  0  0  0  0  0999 V2000
    4.5233   -1.0257    0.2974 O   0  0  0  0  0  0  0  0  0  0  0  0
   -1.7283   -0.0278    0.0337 N   0  0  0  0  0  0  0  0  0  0  0  0
   -4.5737    0.1068   -0.1522 N   0  0  0  0  0  0  0  0  0  0  0  0
    0.3104    1.1219   -0.3223 N   0  0  0  0  0  0  0  0  0  0  0  0
    4.4767    1.1732   -0.3519 N   0  0  0  0  0  0  0  0  0  0  0  0
   -2.4269    1.2298    0.3319 C   0  0  0  0  0  0  0  0  0  0  0  0
   -2.4537   -0.9702   -0.8251 C   0  0  0  0  0  0  0  0  0  0  0  0
   -3.8543    0.9506    0.8010 C   0  0  0  0  0  0  0  0  0  0  0  0
   -3.8809   -1.1701   -0.3158 C   0  0  0  0  0  0  0  0  0  0  0  0
   -0.3288   -0.0175    0.0254 C   0  0  0  0  0  0  0  0  0  0  0  0
    0.3162   -1.1917    0.3796 C   0  0  0  0  0  0  0  0  0  0  0  0
    1.7067   -1.1968    0.3764 C   0  0  0  0  0  0  0  0  0  0  0  0
    2.3999   -0.0438    0.0243 C   0  0  0  0  0  0  0  0  0  0  0  0
    1.6616    1.0789   -0.3138 C   0  0  0  0  0  0  0  0  0  0  0  0
    3.8519   -0.0175    0.0113 C   0  0  0  0  0  0  0  0  0  0  0  0
   -2.4401    1.8641   -0.5636 H   0  0  0  0  0  0  0  0  0  0  0  0
   -1.9065    1.7812    1.1250 H   0  0  0  0  0  0  0  0  0  0  0  0
   -1.9629   -1.9493   -0.8612 H   0  0  0  0  0  0  0  0  0  0  0  0
   -2.4703   -0.5805   -1.8512 H   0  0  0  0  0  0  0  0  0  0  0  0
   -3.8413    0.4710    1.7879 H   0  0  0  0  0  0  0  0  0  0  0  0
   -4.3886    1.9002    0.9133 H   0  0  0  0  0  0  0  0  0  0  0  0
   -4.4347   -1.7880   -1.0309 H   0  0  0  0  0  0  0  0  0  0  0  0
   -3.8695   -1.7139    0.6372 H   0  0  0  0  0  0  0  0  0  0  0  0
   -5.5169   -0.0644    0.1954 H   0  0  0  0  0  0  0  0  0  0  0  0
   -0.2226   -2.0874    0.6707 H   0  0  0  0  0  0  0  0  0  0  0  0
    2.2292   -2.1078    0.6550 H   0  0  0  0  0  0  0  0  0  0  0  0
    2.0972    2.0268   -0.6035 H   0  0  0  0  0  0  0  0  0  0  0  0
    4.0050    2.0329   -0.6022 H   0  0  0  0  0  0  0  0  0  0  0  0
    5.4906    1.2174   -0.3760 H   0  0  0  0  0  0  0  0  0  0  0  0
  1 15  2  0  0  0  0
  2  6  1  0  0  0  0
  2  7  1  0  0  0  0
  2 10  1  0  0  0  0
  3  8  1  0  0  0  0
  3  9  1  0  0  0  0
  3 24  1  0  0  0  0
  4 10  2  0  0  0  0
  4 14  1  0  0  0  0
  5 15  1  0  0  0  0
  5 28  1  0  0  0  0
  5 29  1  0  0  0  0
  6  8  1  0  0  0  0
  6 16  1  0  0  0  0
  6 17  1  0  0  0  0
  7  9  1  0  0  0  0
  7 18  1  0  0  0  0
  7 19  1  0  0  0  0
  8 20  1  0  0  0  0
  8 21  1  0  0  0  0
  9 22  1  0  0  0  0
  9 23  1  0  0  0  0
 10 11  1  0  0  0  0
 11 12  2  0  0  0  0
 11 25  1  0  0  0  0
 12 13  1  0  0  0  0
 12 26  1  0  0  0  0
 13 14  2  0  0  0  0
 13 15  1  0  0  0  0
 14 27  1  0  0  0  0
M  END
>  <PUBCHEM_COMPOUND_CID>
22028988

>  <PUBCHEM_CONFORMER_RMSD>
0.6

>  <PUBCHEM_CONFORMER_DIVERSEORDER>
1
4
3
2

>  <PUBCHEM_MMFF94_PARTIAL_CHARGES>
21
1 -0.57
10 0.41
11 -0.15
12 -0.15
13 0.09
14 0.16
15 0.54
2 -0.84
24 0.36
25 0.15
26 0.15
27 0.15
28 0.37
29 0.37
3 -0.9
4 -0.62
5 -0.8
6 0.37
7 0.37
8 0.27
9 0.27

>  <PUBCHEM_EFFECTIVE_ROTOR_COUNT>
3.2

>  <PUBCHEM_PHARMACOPHORE_FEATURES>
7
1 1 acceptor
1 3 cation
1 3 donor
1 5 donor
3 2 4 10 cation
6 2 3 6 7 8 9 rings
6 4 10 11 12 13 14 rings

>  <PUBCHEM_HEAVY_ATOM_COUNT>
15

>  <PUBCHEM_ATOM_DEF_STEREO_COUNT>
0

>  <PUBCHEM_ATOM_UDEF_STEREO_COUNT>
0

>  <PUBCHEM_BOND_DEF_STEREO_COUNT>
0

>  <PUBCHEM_BOND_UDEF_STEREO_COUNT>
0

>  <PUBCHEM_ISOTOPIC_ATOM_COUNT>
0

>  <PUBCHEM_COMPONENT_COUNT>
1

>  <PUBCHEM_CACTVS_TAUTO_COUNT>
2

>  <PUBCHEM_CONFORMER_ID>
015022BC00000001

>  <PUBCHEM_MMFF94_ENERGY>
47.7026

>  <PUBCHEM_FEATURE_SELFOVERLAP>
35.52

>  <PUBCHEM_SHAPE_FINGERPRINT>
10465860 250 17132111329543573787
11132069 177 18411130325371873504
11401426 45 18408599275253139588
11471102 20 18260265257056651364
11806522 49 18337106868830886935
12236239 1 18412262835649973071
12500047 106 17060333007486049383
13167823 11 18413106147751474454
13690532 89 18334010588495139914
13760787 5 17967534566996135414
14123238 8 18060420226535820525
14144814 61 18411981339013861667
15196674 1 18409729568816528514
15375462 189 18335699412290051946
15536298 74 18341894099846017808
15775835 57 18413111645388416385
17834072 33 18341893025687514572
17862501 102 18411413999371813874
18186145 218 17967531272777461246
18522853 276 18413107268732423681
19026448 4 16702302360506427122
19422 9 18413108355380222598
200 152 18411975888911398647
20279233 1 15864072061747730219
20645477 70 18335415721184686390
21267235 1 18411145727056252455
23402539 116 18273207603762976934
23402655 69 18409163282095732477
23557571 272 16917080944364395913
23559900 14 17846778516711751002
474 4 18042969959497199684
4990 188 18131360687212089478
5104073 3 18411418422992905202
77779 3 18343022181216503630
9981440 41 17402041700641315984

>  <PUBCHEM_SHAPE_MULTIPOLES>
282.9
9.04
1.42
0.74
1.16
0
0
-0.26
-0.03
-0.13
-0.02
-0.23
0.02
-0.82

>  <PUBCHEM_SHAPE_SELFOVERLAP>
593.177

>  <PUBCHEM_SHAPE_VOLUME>
158.3

>  <PUBCHEM_COORDINATE_TYPE>
2
5
10

$$$$
