22756795
 OpenBabel01182520543D

 18 19  0  0  0  0  0  0  0  0999 V2000
   -2.1272    0.5184   -0.1332 S   0  0  0  0  0  0  0  0  0  0  0  0
   -2.0886    0.7417   -1.5667 O   0  0  0  0  0  0  0  0  0  0  0  0
   -3.3183    0.8399    0.6287 O   0  0  0  0  0  0  0  0  0  0  0  0
   -0.1116   -2.8022    0.1305 O   0  0  0  0  0  0  0  0  0  0  0  0
   -0.7936    1.3048    0.5859 N   0  0  0  0  0  0  0  0  0  0  0  0
   -1.6947   -1.1015    0.1711 N   0  0  0  0  0  0  0  0  0  0  0  0
    1.4769    1.7084    0.2174 N   0  0  0  0  0  0  0  0  0  0  0  0
    0.7149   -0.5851    0.0576 C   0  0  0  0  0  0  0  0  0  0  0  0
    0.4917    0.7807    0.2237 C   0  0  0  0  0  0  0  0  0  0  0  0
   -0.3599   -1.6048    0.1187 C   0  0  0  0  0  0  0  0  0  0  0  0
    2.0266   -1.0010   -0.1832 C   0  0  0  0  0  0  0  0  0  0  0  0
    3.0537   -0.0642   -0.2289 C   0  0  0  0  0  0  0  0  0  0  0  0
    2.7302    1.2649   -0.0216 C   0  0  0  0  0  0  0  0  0  0  0  0
   -0.8158    2.3327    0.5986 H   0  0  0  0  0  0  0  0  0  0  0  0
   -2.4522   -1.7964    0.1538 H   0  0  0  0  0  0  0  0  0  0  0  0
    2.2684   -2.0496   -0.3350 H   0  0  0  0  0  0  0  0  0  0  0  0
    4.0776   -0.3681   -0.4146 H   0  0  0  0  0  0  0  0  0  0  0  0
    3.4965    2.0326   -0.0382 H   0  0  0  0  0  0  0  0  0  0  0  0
  1  2  2  0  0  0  0
  1  3  2  0  0  0  0
  1  5  1  0  0  0  0
  1  6  1  0  0  0  0
  4 10  2  0  0  0  0
  5  9  1  0  0  0  0
  5 14  1  0  0  0  0
  6 10  1  0  0  0  0
  6 15  1  0  0  0  0
  7  9  1  0  0  0  0
  7 13  2  0  0  0  0
  8  9  2  0  0  0  0
  8 10  1  0  0  0  0
  8 11  1  0  0  0  0
 11 12  2  0  0  0  0
 11 16  1  0  0  0  0
 12 13  1  0  0  0  0
 12 17  1  0  0  0  0
 13 18  1  0  0  0  0
M  END
>  <PUBCHEM_COMPOUND_CID>
22756795

>  <PUBCHEM_CONFORMER_RMSD>
0.4

>  <PUBCHEM_CONFORMER_DIVERSEORDER>
1
2

>  <PUBCHEM_MMFF94_PARTIAL_CHARGES>
18
1 1.58
10 0.72
11 -0.15
12 -0.15
13 0.16
14 0.42
15 0.42
16 0.15
17 0.15
18 0.15
2 -0.65
3 -0.65
4 -0.57
5 -0.76
6 -0.79
7 -0.62
8 0.09
9 0.51

>  <PUBCHEM_EFFECTIVE_ROTOR_COUNT>
0.4

>  <PUBCHEM_PHARMACOPHORE_FEATURES>
6
1 4 acceptor
1 5 donor
1 6 donor
1 7 acceptor
6 1 5 6 8 9 10 rings
6 7 8 9 11 12 13 rings

>  <PUBCHEM_HEAVY_ATOM_COUNT>
13

>  <PUBCHEM_ATOM_DEF_STEREO_COUNT>
0

>  <PUBCHEM_ATOM_UDEF_STEREO_COUNT>
0

>  <PUBCHEM_BOND_DEF_STEREO_COUNT>
0

>  <PUBCHEM_BOND_UDEF_STEREO_COUNT>
0

>  <PUBCHEM_ISOTOPIC_ATOM_COUNT>
0

>  <PUBCHEM_COMPONENT_COUNT>
1

>  <PUBCHEM_CACTVS_TAUTO_COUNT>
5

>  <PUBCHEM_CONFORMER_ID>
015B3DBB00000001

>  <PUBCHEM_MMFF94_ENERGY>
35.6977

>  <PUBCHEM_FEATURE_SELFOVERLAP>
30.485

>  <PUBCHEM_SHAPE_FINGERPRINT>
1 1 18336544906667352167
11206711 2 18050288368978436486
11471102 20 18338796689680878813
12138202 97 18263073465546394278
12932764 1 17821442465397867904
13380535 21 18265347264224741452
13380535 76 18341611551132900830
14325111 11 18411421725833505833
15775835 57 18259990374601551940
16945 1 18338511924405577138
17844478 74 17968387792261710665
18186145 218 18412825759274681500
193761 8 17835242620305439400
20645476 183 17896339028734702262
21040471 1 18338797922225495648
21501502 16 18266177421231344062
23235685 24 18412543197639583321
23402655 69 18343293744005060805
23419403 2 13921070410471476633
23552423 10 18045502169203686642
23559900 14 18342465863974547356
241688 4 16969984766620727394
25 1 18191299377957501549
2748010 2 18410859905535507118
5084963 1 17676779694524049508
528886 8 18412825767811738696
63268167 104 18341048510621117560
6333449 129 18339077215300823568
81228 2 17830449836330196035

>  <PUBCHEM_SHAPE_MULTIPOLES>
238.83
4.22
2.08
0.8
0.18
1.13
-0.22
-1.48
-0.21
-0.08
0.18
0.39
-0.16
0.12

>  <PUBCHEM_SHAPE_SELFOVERLAP>
501.631

>  <PUBCHEM_SHAPE_VOLUME>
135

>  <PUBCHEM_COORDINATE_TYPE>
2
5
10

$$$$
