23119574
 OpenBabel01182520543D

 22 24  0  0  0  0  0  0  0  0999 V2000
    0.8470   -2.4591   -1.2033 O   0  0  0  0  0  0  0  0  0  0  0  0
   -0.1532    1.2130   -0.6773 N   0  0  0  0  0  0  0  0  0  0  0  0
   -0.5725   -1.6319    0.4103 N   0  0  0  0  0  0  0  0  0  0  0  0
    1.9410    1.8187    0.0928 N   0  0  0  0  0  0  0  0  0  0  0  0
   -2.4029    1.1791   -0.9778 N   0  0  0  0  0  0  0  0  0  0  0  0
    1.4921   -0.5242   -0.0933 C   0  0  0  0  0  0  0  0  0  0  0  0
    1.0888    0.8007   -0.1808 C   0  0  0  0  0  0  0  0  0  0  0  0
   -1.4054   -0.6423    0.3977 C   0  0  0  0  0  0  0  0  0  0  0  0
   -1.2698    0.5983   -0.4515 C   0  0  0  0  0  0  0  0  0  0  0  0
    0.5482   -1.6076   -0.3744 C   0  0  0  0  0  0  0  0  0  0  0  0
    2.8009   -0.8300    0.2759 C   0  0  0  0  0  0  0  0  0  0  0  0
   -2.6372   -0.6792    1.2171 C   0  0  0  0  0  0  0  0  0  0  0  0
    3.6784    0.2042    0.5670 C   0  0  0  0  0  0  0  0  0  0  0  0
   -3.6546    0.1125    0.8704 C   0  0  0  0  0  0  0  0  0  0  0  0
    3.2025    1.4995    0.4661 C   0  0  0  0  0  0  0  0  0  0  0  0
   -3.5031    0.9484   -0.3387 C   0  0  0  0  0  0  0  0  0  0  0  0
    3.1375   -1.8600    0.3512 H   0  0  0  0  0  0  0  0  0  0  0  0
   -2.7039   -1.3747    2.0442 H   0  0  0  0  0  0  0  0  0  0  0  0
    4.7008    0.0041    0.8653 H   0  0  0  0  0  0  0  0  0  0  0  0
   -4.5972    0.1212    1.4010 H   0  0  0  0  0  0  0  0  0  0  0  0
    3.8458    2.3460    0.6830 H   0  0  0  0  0  0  0  0  0  0  0  0
   -4.4356    1.4057   -0.7075 H   0  0  0  0  0  0  0  0  0  0  0  0
  1 10  2  0  0  0  0
  2  7  1  0  0  0  0
  2  9  2  0  0  0  0
  3  8  2  0  0  0  0
  3 10  1  0  0  0  0
  4  7  1  0  0  0  0
  4 15  2  0  0  0  0
  5  9  1  0  0  0  0
  5 16  2  0  0  0  0
  6  7  2  0  0  0  0
  6 10  1  0  0  0  0
  6 11  1  0  0  0  0
  8  9  1  0  0  0  0
  8 12  1  0  0  0  0
 11 13  2  0  0  0  0
 11 17  1  0  0  0  0
 12 14  2  0  0  0  0
 12 18  1  0  0  0  0
 13 15  1  0  0  0  0
 13 19  1  0  0  0  0
 14 16  1  0  0  0  0
 14 20  1  0  0  0  0
 15 21  1  0  0  0  0
 16 22  1  0  0  0  0
M  END
>  <PUBCHEM_COMPOUND_CID>
23119574

>  <PUBCHEM_CONFORMER_RMSD>
0.4

>  <PUBCHEM_CONFORMER_DIVERSEORDER>
1
2

>  <PUBCHEM_MMFF94_PARTIAL_CHARGES>
22
1 -0.57
10 0.69
11 -0.15
12 -0.14
13 -0.15
14 -0.14
15 0.16
16 0.38
17 0.15
18 0.15
19 0.15
2 -0.63
20 0.15
21 0.15
22 0.06
3 -0.66
4 -0.62
5 -0.66
6 0.09
7 0.49
8 0.44
9 0.66

>  <PUBCHEM_EFFECTIVE_ROTOR_COUNT>
0

>  <PUBCHEM_PHARMACOPHORE_FEATURES>
9
1 1 acceptor
1 3 acceptor
1 3 donor
1 4 acceptor
1 5 acceptor
3 2 5 9 cation
6 4 6 7 11 13 15 rings
6 5 8 9 12 14 16 rings
7 2 3 6 7 8 9 10 rings

>  <PUBCHEM_HEAVY_ATOM_COUNT>
16

>  <PUBCHEM_ATOM_DEF_STEREO_COUNT>
0

>  <PUBCHEM_ATOM_UDEF_STEREO_COUNT>
0

>  <PUBCHEM_BOND_DEF_STEREO_COUNT>
0

>  <PUBCHEM_BOND_UDEF_STEREO_COUNT>
0

>  <PUBCHEM_ISOTOPIC_ATOM_COUNT>
0

>  <PUBCHEM_COMPONENT_COUNT>
1

>  <PUBCHEM_CACTVS_TAUTO_COUNT>
1

>  <PUBCHEM_CONFORMER_ID>
0160C6D600000001

>  <PUBCHEM_MMFF94_ENERGY>
59.5032

>  <PUBCHEM_FEATURE_SELFOVERLAP>
45.756

>  <PUBCHEM_SHAPE_FINGERPRINT>
10608611 8 18334572408761639493
11132069 177 18410570708091404395
11471102 22 18408047303204530560
12119455 92 18342449340211960026
12251169 10 18261957443774214568
12382932 28 18408326605033368969
124424 183 17894905196393409682
12696612 119 18114752627992730989
13380535 76 18410006645926284055
13581323 91 17603304860141901657
14115302 16 14996576139402066641
15219456 202 18335702710956810193
15309172 13 18342457062431172426
15375358 24 18260543377827668109
15653759 3 17749109988936424305
15775835 57 18341053029058588288
16945 1 18271529697479473990
17804303 29 18187931642550277842
18175812 5 18187363224839770724
18186145 218 17988928885545019032
19049666 15 18045501902720678477
200 152 18201709683404381005
20201158 50 18336546010721600611
20361792 2 12757143610461695434
204376 136 18272086153732526528
20511035 2 18262243351373452406
21501502 16 18266174126917581478
21524375 3 18341611580823378962
23402539 116 18114173186198531059
23419403 2 15724979274983760571
23463225 33 18187365454038696932
23559900 14 17750797649639769474
2748010 2 18334578992740379911
4663303 62 18200039421456036727
53812653 166 18334011657630656440
633830 44 17560534957328106072
69090 78 18410848897824484323
7364860 26 18200597969036350502
77492 1 16845568682408034173
81228 2 17621019293993691330
84936 31 17417253100297765910

>  <PUBCHEM_SHAPE_MULTIPOLES>
303.48
5.98
1.92
0.98
0.74
0.5
0.02
-1.83
1.56
-0.7
-0.42
0.39
0.15
0.73

>  <PUBCHEM_SHAPE_SELFOVERLAP>
680.705

>  <PUBCHEM_SHAPE_VOLUME>
157.4

>  <PUBCHEM_COORDINATE_TYPE>
2
5
10

$$$$
