23389055
 OpenBabel01182520543D

 29 29  0  0  0  0  0  0  0  0999 V2000
    2.6382   -1.4774    0.9362 O   0  0  0  0  0  0  0  0  0  0  0  0
   -3.3261    0.1633   -0.0691 N   0  0  0  0  0  0  0  0  0  0  0  0
    3.0537    0.4607   -0.3031 N   0  0  0  0  0  0  0  0  0  0  0  0
   -1.1963    0.9738    0.6262 N   0  0  0  0  0  0  0  0  0  0  0  0
    0.7792   -0.3502    0.1910 C   0  0  0  0  0  0  0  0  0  0  0  0
   -1.9216    0.0027    0.0273 C   0  0  0  0  0  0  0  0  0  0  0  0
   -0.0006   -1.3270   -0.4182 C   0  0  0  0  0  0  0  0  0  0  0  0
    2.2387   -0.5028    0.3000 C   0  0  0  0  0  0  0  0  0  0  0  0
   -1.3777   -1.1549   -0.5056 C   0  0  0  0  0  0  0  0  0  0  0  0
    0.1387    0.7714    0.6928 C   0  0  0  0  0  0  0  0  0  0  0  0
   -4.1331   -0.8555   -0.7030 C   0  0  0  0  0  0  0  0  0  0  0  0
   -3.9628    1.3408    0.4784 C   0  0  0  0  0  0  0  0  0  0  0  0
    4.5009    0.3408   -0.1950 C   0  0  0  0  0  0  0  0  0  0  0  0
    2.5690    1.6143   -1.0579 C   0  0  0  0  0  0  0  0  0  0  0  0
    0.4545   -2.2242   -0.8291 H   0  0  0  0  0  0  0  0  0  0  0  0
   -1.9474   -1.9398   -0.9879 H   0  0  0  0  0  0  0  0  0  0  0  0
    0.6868    1.5635    1.1938 H   0  0  0  0  0  0  0  0  0  0  0  0
   -3.8560   -0.9905   -1.7546 H   0  0  0  0  0  0  0  0  0  0  0  0
   -4.0623   -1.8116   -0.1719 H   0  0  0  0  0  0  0  0  0  0  0  0
   -5.1949   -0.5836   -0.7009 H   0  0  0  0  0  0  0  0  0  0  0  0
   -3.7882    1.4089    1.5578 H   0  0  0  0  0  0  0  0  0  0  0  0
   -3.5758    2.2481    0.0017 H   0  0  0  0  0  0  0  0  0  0  0  0
   -5.0472    1.3327    0.3252 H   0  0  0  0  0  0  0  0  0  0  0  0
    4.9198    0.2131   -1.1974 H   0  0  0  0  0  0  0  0  0  0  0  0
    4.7921   -0.5133    0.4215 H   0  0  0  0  0  0  0  0  0  0  0  0
    4.8970    1.2559    0.2550 H   0  0  0  0  0  0  0  0  0  0  0  0
    2.5695    2.4854   -0.3968 H   0  0  0  0  0  0  0  0  0  0  0  0
    1.5676    1.4533   -1.4608 H   0  0  0  0  0  0  0  0  0  0  0  0
    3.2416    1.8013   -1.9009 H   0  0  0  0  0  0  0  0  0  0  0  0
  1  8  2  0  0  0  0
  2  6  1  0  0  0  0
  2 11  1  0  0  0  0
  2 12  1  0  0  0  0
  3  8  1  0  0  0  0
  3 13  1  0  0  0  0
  3 14  1  0  0  0  0
  4  6  2  0  0  0  0
  4 10  1  0  0  0  0
  5  7  1  0  0  0  0
  5  8  1  0  0  0  0
  5 10  2  0  0  0  0
  6  9  1  0  0  0  0
  7  9  2  0  0  0  0
  7 15  1  0  0  0  0
  9 16  1  0  0  0  0
 10 17  1  0  0  0  0
 11 18  1  0  0  0  0
 11 19  1  0  0  0  0
 11 20  1  0  0  0  0
 12 21  1  0  0  0  0
 12 22  1  0  0  0  0
 12 23  1  0  0  0  0
 13 24  1  0  0  0  0
 13 25  1  0  0  0  0
 13 26  1  0  0  0  0
 14 27  1  0  0  0  0
 14 28  1  0  0  0  0
 14 29  1  0  0  0  0
M  END
>  <PUBCHEM_COMPOUND_CID>
23389055

>  <PUBCHEM_CONFORMER_RMSD>
0.6

>  <PUBCHEM_CONFORMER_DIVERSEORDER>
1
3
8
2
5
4
7
6

>  <PUBCHEM_MMFF94_PARTIAL_CHARGES>
17
1 -0.57
10 0.16
11 0.37
12 0.37
13 0.3
14 0.3
15 0.15
16 0.15
17 0.15
2 -0.84
3 -0.66
4 -0.62
5 0.09
6 0.41
7 -0.15
8 0.54
9 -0.15

>  <PUBCHEM_EFFECTIVE_ROTOR_COUNT>
3

>  <PUBCHEM_PHARMACOPHORE_FEATURES>
3
1 1 acceptor
3 2 4 6 cation
6 4 5 6 7 9 10 rings

>  <PUBCHEM_HEAVY_ATOM_COUNT>
14

>  <PUBCHEM_ATOM_DEF_STEREO_COUNT>
0

>  <PUBCHEM_ATOM_UDEF_STEREO_COUNT>
0

>  <PUBCHEM_BOND_DEF_STEREO_COUNT>
0

>  <PUBCHEM_BOND_UDEF_STEREO_COUNT>
0

>  <PUBCHEM_ISOTOPIC_ATOM_COUNT>
0

>  <PUBCHEM_COMPONENT_COUNT>
1

>  <PUBCHEM_CACTVS_TAUTO_COUNT>
1

>  <PUBCHEM_CONFORMER_ID>
0164E37F00000001

>  <PUBCHEM_MMFF94_ENERGY>
55.6514

>  <PUBCHEM_FEATURE_SELFOVERLAP>
15.223

>  <PUBCHEM_SHAPE_FINGERPRINT>
10980938 120 18186237329560237252
11031198 65 17458352944186793782
11471102 20 18040431101333175774
12119455 92 16008739234403864194
13538477 17 18339917212151666146
13760787 19 18408884027638336115
13760787 5 18409727335892580967
14325111 11 18341892974464392003
14911166 2 18060697312356589605
14993402 34 18412542132629930421
15775835 57 18408608067251784620
16945 1 17489584558851537699
18186145 218 18114181904259371079
19026448 4 16732983098624085051
19026448 5 18261388927854472339
19422 9 18409445873711231443
20233049 118 18202845448329233384
20279233 1 16056884645455655158
20645476 183 18410293648362653974
20645477 70 17604134935634316483
21119208 17 18410859871518569356
23402539 116 17917707989907206276
23402655 69 18411133602532335661
23463225 33 18339920411722823763
23559900 14 17775849021778020400
2748010 2 17698990005905082723
474 4 17823420581596012324
4990 188 17346323695394330788
537710 114 18342459257185990417
57096353 35 18341046402055867711
7364860 26 18271244924733076198
9981440 41 17328300754955332080

>  <PUBCHEM_SHAPE_MULTIPOLES>
267.3
7.7
1.5
0.89
0.63
0.06
0.05
1.32
0.84
0.13
0.07
-0.19
0.06
-1.07

>  <PUBCHEM_SHAPE_SELFOVERLAP>
543.688

>  <PUBCHEM_SHAPE_VOLUME>
156.6

>  <PUBCHEM_COORDINATE_TYPE>
2
5
10

$$$$
