23402635
 OpenBabel01182520543D

 31 32  0  0  0  0  0  0  0  0999 V2000
   -0.2506   -2.0698    0.6784 O   0  0  0  0  0  0  0  0  0  0  0  0
   -0.7695    0.2096    0.5132 N   0  0  0  0  0  0  0  0  0  0  0  0
    0.9363    1.7624   -0.0692 N   0  0  0  0  0  0  0  0  0  0  0  0
    3.1162    1.0533   -0.4717 N   0  0  0  0  0  0  0  0  0  0  0  0
   -2.1722   -0.0135    0.8597 C   0  0  0  0  0  0  0  0  0  0  0  0
   -3.0404   -0.2732   -0.3670 C   0  0  0  0  0  0  0  0  0  0  0  0
   -4.5144   -0.4800   -0.0111 C   0  0  0  0  0  0  0  0  0  0  0  0
   -0.2932    1.4919    0.2427 C   0  0  0  0  0  0  0  0  0  0  0  0
    0.0780   -0.9073    0.4606 C   0  0  0  0  0  0  0  0  0  0  0  0
    1.4784   -0.6100    0.1068 C   0  0  0  0  0  0  0  0  0  0  0  0
    1.8503    0.7042   -0.1419 C   0  0  0  0  0  0  0  0  0  0  0  0
   -5.3640   -0.6766   -1.2568 C   0  0  0  0  0  0  0  0  0  0  0  0
   -1.2683    2.6427    0.3167 C   0  0  0  0  0  0  0  0  0  0  0  0
    2.4400   -1.6151    0.0150 C   0  0  0  0  0  0  0  0  0  0  0  0
    3.7445   -1.2768   -0.3221 C   0  0  0  0  0  0  0  0  0  0  0  0
    4.0288    0.0582   -0.5533 C   0  0  0  0  0  0  0  0  0  0  0  0
   -2.2337   -0.8814    1.5279 H   0  0  0  0  0  0  0  0  0  0  0  0
   -2.5642    0.8338    1.4294 H   0  0  0  0  0  0  0  0  0  0  0  0
   -2.6683   -1.1621   -0.8927 H   0  0  0  0  0  0  0  0  0  0  0  0
   -2.9509    0.5551   -1.0787 H   0  0  0  0  0  0  0  0  0  0  0  0
   -4.8875    0.3888    0.5433 H   0  0  0  0  0  0  0  0  0  0  0  0
   -4.6194   -1.3534    0.6428 H   0  0  0  0  0  0  0  0  0  0  0  0
   -5.0338   -1.5540   -1.8222 H   0  0  0  0  0  0  0  0  0  0  0  0
   -6.4126   -0.8251   -0.9806 H   0  0  0  0  0  0  0  0  0  0  0  0
   -5.3064    0.1975   -1.9134 H   0  0  0  0  0  0  0  0  0  0  0  0
   -2.1469    2.4645   -0.3046 H   0  0  0  0  0  0  0  0  0  0  0  0
   -0.7884    3.5622   -0.0334 H   0  0  0  0  0  0  0  0  0  0  0  0
   -1.5775    2.7987    1.3542 H   0  0  0  0  0  0  0  0  0  0  0  0
    2.1925   -2.6559    0.2012 H   0  0  0  0  0  0  0  0  0  0  0  0
    4.5153   -2.0348   -0.4016 H   0  0  0  0  0  0  0  0  0  0  0  0
    5.0321    0.3742   -0.8196 H   0  0  0  0  0  0  0  0  0  0  0  0
  1  9  2  0  0  0  0
  2  5  1  0  0  0  0
  2  8  1  0  0  0  0
  2  9  1  0  0  0  0
  3  8  2  0  0  0  0
  3 11  1  0  0  0  0
  4 11  1  0  0  0  0
  4 16  2  0  0  0  0
  5  6  1  0  0  0  0
  5 17  1  0  0  0  0
  5 18  1  0  0  0  0
  6  7  1  0  0  0  0
  6 19  1  0  0  0  0
  6 20  1  0  0  0  0
  7 12  1  0  0  0  0
  7 21  1  0  0  0  0
  7 22  1  0  0  0  0
  8 13  1  0  0  0  0
  9 10  1  0  0  0  0
 10 11  2  0  0  0  0
 10 14  1  0  0  0  0
 12 23  1  0  0  0  0
 12 24  1  0  0  0  0
 12 25  1  0  0  0  0
 13 26  1  0  0  0  0
 13 27  1  0  0  0  0
 13 28  1  0  0  0  0
 14 15  2  0  0  0  0
 14 29  1  0  0  0  0
 15 16  1  0  0  0  0
 15 30  1  0  0  0  0
 16 31  1  0  0  0  0
M  END
>  <PUBCHEM_COMPOUND_CID>
23402635

>  <PUBCHEM_CONFORMER_RMSD>
0.6

>  <PUBCHEM_CONFORMER_DIVERSEORDER>
3
1
2
6
5
8
4
7

>  <PUBCHEM_MMFF94_PARTIAL_CHARGES>
16
1 -0.57
10 0.09
11 0.49
13 0.06
14 -0.15
15 -0.15
16 0.16
2 -0.42
29 0.15
3 -0.63
30 0.15
31 0.15
4 -0.62
5 0.3
8 0.45
9 0.54

>  <PUBCHEM_EFFECTIVE_ROTOR_COUNT>
3

>  <PUBCHEM_PHARMACOPHORE_FEATURES>
5
1 1 acceptor
1 12 hydrophobe
1 4 acceptor
6 2 3 8 9 10 11 rings
6 4 10 11 14 15 16 rings

>  <PUBCHEM_HEAVY_ATOM_COUNT>
16

>  <PUBCHEM_ATOM_DEF_STEREO_COUNT>
0

>  <PUBCHEM_ATOM_UDEF_STEREO_COUNT>
0

>  <PUBCHEM_BOND_DEF_STEREO_COUNT>
0

>  <PUBCHEM_BOND_UDEF_STEREO_COUNT>
0

>  <PUBCHEM_ISOTOPIC_ATOM_COUNT>
0

>  <PUBCHEM_COMPONENT_COUNT>
1

>  <PUBCHEM_CACTVS_TAUTO_COUNT>
1

>  <PUBCHEM_CONFORMER_ID>
0165188B00000003

>  <PUBCHEM_MMFF94_ENERGY>
35.5951

>  <PUBCHEM_FEATURE_SELFOVERLAP>
25.406

>  <PUBCHEM_SHAPE_FINGERPRINT>
10967382 1 18337680814253974968
11206711 2 18262529073988559268
11471102 20 18408041835684736854
11806522 49 18413107259999979761
12236239 1 17917720110768866499
12251169 10 9439401315716509494
13760787 5 18334870406271452257
13862211 1 18410570673858838242
14251717 144 18410573998094589711
14576447 43 18272081751554747591
14911166 2 18335142015761141934
14993402 34 18342179985422040063
15196674 1 18410295765797088512
15848700 24 18412822495030932100
16945 1 18336562585269505792
18186145 218 17821727230625313515
200 152 18341894073738584477
20645477 70 18409450280221381855
21029758 11 18413390955427654216
21267235 1 18339935847761601390
21501502 16 18192721050924183712
21637258 2 16200150954651799630
221357 26 18336532877476728445
221490 88 18120939675013277011
22713019 99 18413393145892435103
2334 1 17689449599419395744
23402539 116 18341049631565325382
23402655 69 18409445890948941167
23559900 14 18338239392258080784
2748010 2 17833847331871346256
2871803 45 18408321060172456975
3286 77 17346595253428770154
34934 24 18339357595303642330
57096353 35 18336279976194608444
7164475 11 18267866081854688212

>  <PUBCHEM_SHAPE_MULTIPOLES>
308.46
8.28
2.08
0.86
6.97
0.94
0.07
-3.08
3.26
-0.25
-0.2
0.52
-0.12
-0.47

>  <PUBCHEM_SHAPE_SELFOVERLAP>
646.922

>  <PUBCHEM_SHAPE_VOLUME>
174

>  <PUBCHEM_COORDINATE_TYPE>
2
5
10

$$$$
