23470909
 OpenBabel01182520543D

 18 18  0  0  0  0  0  0  0  0999 V2000
   -3.7699    0.7056   -0.2312 P   0  0  0  0  0  0  0  0  0  0  0  0
    3.5338    1.2828    0.0881 O   0  0  0  0  0  0  0  0  0  0  0  0
   -4.8359   -0.0568    0.4131 O   0  0  0  0  0  0  0  0  0  0  0  0
   -0.4084   -1.3965   -0.0677 N   0  0  0  0  0  0  0  0  0  0  0  0
   -2.5821   -0.4228   -0.1261 N   0  0  0  0  0  0  0  0  0  0  0  0
    3.7380   -1.0011    0.0600 N   0  0  0  0  0  0  0  0  0  0  0  0
    1.5356    0.0391    0.0006 C   0  0  0  0  0  0  0  0  0  0  0  0
    0.7160    1.1622   -0.0158 C   0  0  0  0  0  0  0  0  0  0  0  0
   -1.1729   -0.2816   -0.0825 C   0  0  0  0  0  0  0  0  0  0  0  0
   -0.6652    1.0075   -0.0581 C   0  0  0  0  0  0  0  0  0  0  0  0
    0.9295   -1.2066   -0.0264 C   0  0  0  0  0  0  0  0  0  0  0  0
    2.9815    0.1682    0.0459 C   0  0  0  0  0  0  0  0  0  0  0  0
    1.1323    2.1658    0.0044 H   0  0  0  0  0  0  0  0  0  0  0  0
   -1.2742    1.9038   -0.0667 H   0  0  0  0  0  0  0  0  0  0  0  0
    1.4702   -2.1445   -0.0162 H   0  0  0  0  0  0  0  0  0  0  0  0
   -2.8356   -1.4084   -0.1474 H   0  0  0  0  0  0  0  0  0  0  0  0
    3.3671   -1.9425    0.0329 H   0  0  0  0  0  0  0  0  0  0  0  0
    4.7507   -0.9399    0.0985 H   0  0  0  0  0  0  0  0  0  0  0  0
  1  3  2  0  0  0  0
  1  5  1  0  0  0  0
  2 12  2  0  0  0  0
  4  9  2  0  0  0  0
  4 11  1  0  0  0  0
  5  9  1  0  0  0  0
  5 16  1  0  0  0  0
  6 12  1  0  0  0  0
  6 17  1  0  0  0  0
  6 18  1  0  0  0  0
  7  8  1  0  0  0  0
  7 11  2  0  0  0  0
  7 12  1  0  0  0  0
  8 10  2  0  0  0  0
  8 13  1  0  0  0  0
  9 10  1  0  0  0  0
 10 14  1  0  0  0  0
 11 15  1  0  0  0  0
M  END
>  <PUBCHEM_COMPOUND_CID>
23470909

>  <PUBCHEM_CONFORMER_RMSD>
0.6

>  <PUBCHEM_CONFORMER_DIVERSEORDER>
1
9
4
12
8
2
10
11
3
5
6
7

>  <PUBCHEM_MMFF94_PARTIAL_CHARGES>
18
1 0.71
10 -0.15
11 0.16
12 0.54
13 0.15
14 0.15
15 0.15
16 0.4
17 0.37
18 0.37
2 -0.57
3 -0.59
4 -0.62
5 -0.62
6 -0.8
7 0.09
8 -0.15
9 0.41

>  <PUBCHEM_EFFECTIVE_ROTOR_COUNT>
3

>  <PUBCHEM_PHARMACOPHORE_FEATURES>
6
1 2 acceptor
1 3 acceptor
1 5 donor
1 6 donor
3 4 5 9 cation
6 4 7 8 9 10 11 rings

>  <PUBCHEM_HEAVY_ATOM_COUNT>
12

>  <PUBCHEM_ATOM_DEF_STEREO_COUNT>
0

>  <PUBCHEM_ATOM_UDEF_STEREO_COUNT>
0

>  <PUBCHEM_BOND_DEF_STEREO_COUNT>
0

>  <PUBCHEM_BOND_UDEF_STEREO_COUNT>
0

>  <PUBCHEM_ISOTOPIC_ATOM_COUNT>
0

>  <PUBCHEM_COMPONENT_COUNT>
1

>  <PUBCHEM_CACTVS_TAUTO_COUNT>
11

>  <PUBCHEM_CONFORMER_ID>
0166233D00000001

>  <PUBCHEM_MMFF94_ENERGY>
33.8716

>  <PUBCHEM_FEATURE_SELFOVERLAP>
30.446

>  <PUBCHEM_SHAPE_FINGERPRINT>
10219947 1 18408888433936950789
11062470 55 17704071806751205749
11401426 45 18272079500548467189
11471102 20 18411132532795172637
12032990 46 18409170978270879871
13380535 76 18411419505604692439
14325111 11 18410854377817554228
20645477 70 18342458101750435598
23235685 24 18410848875953866037
23402539 116 17917419913169992885
23402655 69 18269824355905065037
449060 62 18413109472235145848
528886 8 18412257354691558723
53655031 270 18342739572521388337
53812653 166 18341889727173788777

>  <PUBCHEM_SHAPE_MULTIPOLES>
224.12
7.27
1.32
0.61
4.4
0.02
-0.01
-0.59
0.49
-0.54
-0.02
0.11
-0.02
0.08

>  <PUBCHEM_SHAPE_SELFOVERLAP>
456.438

>  <PUBCHEM_SHAPE_VOLUME>
131.5

>  <PUBCHEM_COORDINATE_TYPE>
2
5
10

$$$$
