23574357
 OpenBabel01182520543D

 40 40  0  0  0  0  0  0  0  0999 V2000
   -0.8608    2.9576   -0.2762 O   0  0  0  0  0  0  0  0  0  0  0  0
    3.8256    0.0288    0.4035 N   0  0  0  0  0  0  0  0  0  0  0  0
    0.4308    1.2667    0.6480 N   0  0  0  0  0  0  0  0  0  0  0  0
   -2.6546   -1.3885   -0.2596 N   0  0  0  0  0  0  0  0  0  0  0  0
   -4.9399   -1.8357   -0.3689 N   0  0  0  0  0  0  0  0  0  0  0  0
   -5.2884   -2.2306    0.7638 N   0  0  0  0  0  0  0  0  0  0  0  0
    4.3209   -1.3019    0.0360 C   0  0  0  0  0  0  0  0  0  0  0  0
    3.0871    0.6213   -0.6988 C   0  0  0  0  0  0  0  0  0  0  0  0
    2.5584    2.0154   -0.3496 C   0  0  0  0  0  0  0  0  0  0  0  0
    3.1215   -2.1904   -0.3108 C   0  0  0  0  0  0  0  0  0  0  0  0
    5.0809   -1.8874    1.2308 C   0  0  0  0  0  0  0  0  0  0  0  0
    5.2544   -1.1809   -1.1742 C   0  0  0  0  0  0  0  0  0  0  0  0
    1.6179    2.0505    0.8536 C   0  0  0  0  0  0  0  0  0  0  0  0
   -0.7292    1.7931    0.0913 C   0  0  0  0  0  0  0  0  0  0  0  0
   -1.8784    0.8594   -0.0301 C   0  0  0  0  0  0  0  0  0  0  0  0
   -3.1613    1.3504   -0.0232 C   0  0  0  0  0  0  0  0  0  0  0  0
   -1.6547   -0.4858   -0.1468 C   0  0  0  0  0  0  0  0  0  0  0  0
   -4.2170    0.4525   -0.1371 C   0  0  0  0  0  0  0  0  0  0  0  0
   -3.9131   -0.8945   -0.2517 C   0  0  0  0  0  0  0  0  0  0  0  0
    4.6054    0.6340    0.6595 H   0  0  0  0  0  0  0  0  0  0  0  0
    3.7127    0.7608   -1.5858 H   0  0  0  0  0  0  0  0  0  0  0  0
    2.2183    0.0263   -0.9936 H   0  0  0  0  0  0  0  0  0  0  0  0
    2.0394    2.4207   -1.2277 H   0  0  0  0  0  0  0  0  0  0  0  0
    3.4054    2.6846   -0.1515 H   0  0  0  0  0  0  0  0  0  0  0  0
    3.4327   -3.2417   -0.3582 H   0  0  0  0  0  0  0  0  0  0  0  0
    2.3355   -2.1287    0.4516 H   0  0  0  0  0  0  0  0  0  0  0  0
    2.6779   -1.9694   -1.2873 H   0  0  0  0  0  0  0  0  0  0  0  0
    5.9394   -1.2625    1.5039 H   0  0  0  0  0  0  0  0  0  0  0  0
    5.4617   -2.8901    1.0055 H   0  0  0  0  0  0  0  0  0  0  0  0
    4.4346   -1.9703    2.1125 H   0  0  0  0  0  0  0  0  0  0  0  0
    6.0141   -0.4043   -1.0254 H   0  0  0  0  0  0  0  0  0  0  0  0
    5.7927   -2.1241   -1.3307 H   0  0  0  0  0  0  0  0  0  0  0  0
    4.7300   -0.9781   -2.1138 H   0  0  0  0  0  0  0  0  0  0  0  0
    1.3282    3.0880    1.0551 H   0  0  0  0  0  0  0  0  0  0  0  0
    2.1122    1.6702    1.7534 H   0  0  0  0  0  0  0  0  0  0  0  0
    0.4560    0.3095    0.9823 H   0  0  0  0  0  0  0  0  0  0  0  0
   -3.3730    2.4108    0.0725 H   0  0  0  0  0  0  0  0  0  0  0  0
   -0.6678   -0.9318   -0.1906 H   0  0  0  0  0  0  0  0  0  0  0  0
   -5.2424    0.8064   -0.1350 H   0  0  0  0  0  0  0  0  0  0  0  0
   -6.0430   -2.9234    0.7029 H   0  0  0  0  0  0  0  0  0  0  0  0
  1 14  2  0  0  0  0
  2  7  1  0  0  0  0
  2  8  1  0  0  0  0
  2 20  1  0  0  0  0
  3 13  1  0  0  0  0
  3 14  1  0  0  0  0
  3 36  1  0  0  0  0
  4 17  1  0  0  0  0
  4 19  2  0  0  0  0
  5  6  2  0  0  0  0
  5 19  1  0  0  0  0
  6 40  1  0  0  0  0
  7 10  1  0  0  0  0
  7 11  1  0  0  0  0
  7 12  1  0  0  0  0
  8  9  1  0  0  0  0
  8 21  1  0  0  0  0
  8 22  1  0  0  0  0
  9 13  1  0  0  0  0
  9 23  1  0  0  0  0
  9 24  1  0  0  0  0
 10 25  1  0  0  0  0
 10 26  1  0  0  0  0
 10 27  1  0  0  0  0
 11 28  1  0  0  0  0
 11 29  1  0  0  0  0
 11 30  1  0  0  0  0
 12 31  1  0  0  0  0
 12 32  1  0  0  0  0
 12 33  1  0  0  0  0
 13 34  1  0  0  0  0
 13 35  1  0  0  0  0
 14 15  1  0  0  0  0
 15 16  1  0  0  0  0
 15 17  2  0  0  0  0
 16 18  2  0  0  0  0
 16 37  1  0  0  0  0
 17 38  1  0  0  0  0
 18 19  1  0  0  0  0
 18 39  1  0  0  0  0
M  END
>  <PUBCHEM_COMPOUND_CID>
23574357

>  <PUBCHEM_CONFORMER_RMSD>
0.8

>  <PUBCHEM_CONFORMER_DIVERSEORDER>
1
20
17
44
27
16
45
28
37
39
10
22
6
34
52
8
49
21
47
36
42
33
13
24
9
43
18
35
3
5
26
19
14
38
12
11
2
41
31
30
51
25
23
7
46
4
15
48
50
29
40
32

>  <PUBCHEM_MMFF94_PARTIAL_CHARGES>
21
1 -0.57
13 0.3
14 0.54
15 0.09
16 -0.15
17 0.16
18 -0.15
19 0.49
2 -0.9
20 0.36
3 -0.73
36 0.37
37 0.15
38 0.15
39 0.15
4 -0.62
40 0.4
5 -0.18
6 -0.4
7 0.27
8 0.27

>  <PUBCHEM_EFFECTIVE_ROTOR_COUNT>
8

>  <PUBCHEM_PHARMACOPHORE_FEATURES>
7
1 1 acceptor
1 2 cation
1 2 donor
1 3 donor
3 4 5 19 cation
4 7 10 11 12 hydrophobe
6 4 15 16 17 18 19 rings

>  <PUBCHEM_HEAVY_ATOM_COUNT>
19

>  <PUBCHEM_ATOM_DEF_STEREO_COUNT>
0

>  <PUBCHEM_ATOM_UDEF_STEREO_COUNT>
0

>  <PUBCHEM_BOND_DEF_STEREO_COUNT>
0

>  <PUBCHEM_BOND_UDEF_STEREO_COUNT>
0

>  <PUBCHEM_ISOTOPIC_ATOM_COUNT>
0

>  <PUBCHEM_COMPONENT_COUNT>
1

>  <PUBCHEM_CACTVS_TAUTO_COUNT>
2

>  <PUBCHEM_CONFORMER_ID>
0167B75500000001

>  <PUBCHEM_MMFF94_ENERGY>
35.4559

>  <PUBCHEM_FEATURE_SELFOVERLAP>
35.52

>  <PUBCHEM_SHAPE_FINGERPRINT>
11796584 16 18339078168894547588
12596602 18 16845294989791193355
12824470 246 18272656718657975176
13533116 47 18128818728076922793
13551218 46 18270684281097945655
13955234 65 18054227910214038392
14123256 34 18343033189566239558
1420 369 18413671318165733250
14251731 5 18412546521949480196
14251751 18 18336819815092384218
14251764 30 17750246936195614883
14576447 43 18334298652500107548
14790565 3 17332246394843364649
14866123 147 18197783189763830705
15196674 1 18411981368698935004
15352361 1 18411980235075449734
15537594 2 18263095331256715658
17492 89 18339081493357860518
1813 80 17749383797396960045
193927 3 18412831291118601562
20281475 54 18412548712335822096
20291156 8 18339923719343390412
20374829 77 18408881811028828089
20403669 9 18413671292364469542
20626108 58 18115297879235225752
20645477 70 18335418023503110008
21054139 6 18261119518216681070
21250096 35 18272084951315653048
21279426 13 18336255804704118525
22620623 9 17241026735689476885
23403322 49 18410855456054929045
23559900 14 18412536626493146920
3004659 81 18334577928131874340
314173 41 18342181038200743500
339767 52 18267852918122856130
3421961 26 18342172331843300160
44062 13 18335981948218844469
5104073 3 18272370875530700281
556388 4 18408318882877485882
59682541 35 18271795866427040880
7062679 13 18408884048691121059
76465 3 18408881819930044504
88748 71 18408888421010143314
9709674 26 18335139855350296768

>  <PUBCHEM_SHAPE_MULTIPOLES>
360.24
12.42
3
0.9
1.22
0.46
0.06
-10.2
-0.06
-0.33
0.24
0.89
-0.16
0.03

>  <PUBCHEM_SHAPE_SELFOVERLAP>
727.855

>  <PUBCHEM_SHAPE_VOLUME>
211.4

>  <PUBCHEM_COORDINATE_TYPE>
2
5
10

$$$$
