237828
 OpenBabel01182520543D

 19 19  0  0  0  0  0  0  0  0999 V2000
    0.8916    1.7577   -0.3589 O   0  0  0  0  0  0  0  0  0  0  0  0
    3.5114    0.7775   -0.1469 O   0  0  0  0  0  0  0  0  0  0  0  0
    1.5284   -0.4304    0.1178 N   0  0  0  0  0  0  0  0  0  0  0  0
   -3.1241    0.8014    0.3700 N   0  0  0  0  0  0  0  0  0  0  0  0
    3.5728   -1.4658    0.3453 N   0  0  0  0  0  0  0  0  0  0  0  0
   -0.8229    0.1903   -0.0491 C   0  0  0  0  0  0  0  0  0  0  0  0
    0.5745    0.5820   -0.1023 C   0  0  0  0  0  0  0  0  0  0  0  0
   -1.2148   -1.1101   -0.3467 C   0  0  0  0  0  0  0  0  0  0  0  0
   -1.8076    1.1003    0.3003 C   0  0  0  0  0  0  0  0  0  0  0  0
   -2.5603   -1.4559   -0.2863 C   0  0  0  0  0  0  0  0  0  0  0  0
   -3.4671   -0.4723    0.0741 C   0  0  0  0  0  0  0  0  0  0  0  0
    2.9181   -0.2746    0.0829 C   0  0  0  0  0  0  0  0  0  0  0  0
   -0.5084   -1.8741   -0.6572 H   0  0  0  0  0  0  0  0  0  0  0  0
   -1.5701    2.1304    0.5483 H   0  0  0  0  0  0  0  0  0  0  0  0
    1.2033   -1.3615    0.3595 H   0  0  0  0  0  0  0  0  0  0  0  0
   -2.8900   -2.4616   -0.5205 H   0  0  0  0  0  0  0  0  0  0  0  0
   -4.5282   -0.6905    0.1343 H   0  0  0  0  0  0  0  0  0  0  0  0
    3.0663   -2.3247    0.5321 H   0  0  0  0  0  0  0  0  0  0  0  0
    4.5860   -1.5156    0.3571 H   0  0  0  0  0  0  0  0  0  0  0  0
  1  7  2  0  0  0  0
  2 12  2  0  0  0  0
  3  7  1  0  0  0  0
  3 12  1  0  0  0  0
  3 15  1  0  0  0  0
  4  9  1  0  0  0  0
  4 11  2  0  0  0  0
  5 12  1  0  0  0  0
  5 18  1  0  0  0  0
  5 19  1  0  0  0  0
  6  7  1  0  0  0  0
  6  8  1  0  0  0  0
  6  9  2  0  0  0  0
  8 10  2  0  0  0  0
  8 13  1  0  0  0  0
  9 14  1  0  0  0  0
 10 11  1  0  0  0  0
 10 16  1  0  0  0  0
 11 17  1  0  0  0  0
M  END
>  <PUBCHEM_COMPOUND_CID>
237828

>  <PUBCHEM_CONFORMER_RMSD>
0.6

>  <PUBCHEM_CONFORMER_DIVERSEORDER>
2
5
3
6
1
4

>  <PUBCHEM_MMFF94_PARTIAL_CHARGES>
19
1 -0.57
10 -0.15
11 0.16
12 0.69
13 0.15
14 0.15
15 0.37
16 0.15
17 0.15
18 0.37
19 0.37
2 -0.57
3 -0.49
4 -0.62
5 -0.8
6 0.09
7 0.54
8 -0.15
9 0.16

>  <PUBCHEM_EFFECTIVE_ROTOR_COUNT>
3

>  <PUBCHEM_PHARMACOPHORE_FEATURES>
6
1 1 acceptor
1 2 acceptor
1 3 donor
1 4 acceptor
1 5 donor
6 4 6 8 9 10 11 rings

>  <PUBCHEM_HEAVY_ATOM_COUNT>
12

>  <PUBCHEM_ATOM_DEF_STEREO_COUNT>
0

>  <PUBCHEM_ATOM_UDEF_STEREO_COUNT>
0

>  <PUBCHEM_BOND_DEF_STEREO_COUNT>
0

>  <PUBCHEM_BOND_UDEF_STEREO_COUNT>
0

>  <PUBCHEM_ISOTOPIC_ATOM_COUNT>
0

>  <PUBCHEM_COMPONENT_COUNT>
1

>  <PUBCHEM_CACTVS_TAUTO_COUNT>
5

>  <PUBCHEM_CONFORMER_ID>
0003A10400000002

>  <PUBCHEM_MMFF94_ENERGY>
31.9473

>  <PUBCHEM_FEATURE_SELFOVERLAP>
30.5

>  <PUBCHEM_SHAPE_FINGERPRINT>
11769659 78 18412538842590211367
12932764 1 17346309440519194346
13690532 89 18410570682854564935
14144814 61 18411700993186294938
14325111 11 18411982455304457912
18186145 218 16732702744549351610
19422 9 18408044004822712290
207724 885 18334014990720502289
20871998 184 17988927824857110287
22485316 2 18335697234984342562
23402539 116 17988916752942987501
23463225 33 18410292467510255006
23552423 10 18119811558559996061
369184 2 14836408021230710967
7364860 26 18126847329055603496

>  <PUBCHEM_SHAPE_MULTIPOLES>
220.27
6.26
1.52
0.64
2.91
0.01
0
1.32
-0.51
-0.03
0.05
-0.06
0.01
-0.46

>  <PUBCHEM_SHAPE_SELFOVERLAP>
458.922

>  <PUBCHEM_SHAPE_VOLUME>
123.5

>  <PUBCHEM_COORDINATE_TYPE>
2
5
10

$$$$
