24691059
 OpenBabel01182520543D

 29 30  0  0  0  0  0  0  0  0999 V2000
    4.5397   -0.3152   -0.1312 O   0  0  0  0  0  0  0  0  0  0  0  0
   -0.8471    2.5165   -0.9244 O   0  0  0  0  0  0  0  0  0  0  0  0
    0.5215   -0.4705   -0.0051 N   0  0  0  0  0  0  0  0  0  0  0  0
   -1.3624   -1.8802   -0.1039 N   0  0  0  0  0  0  0  0  0  0  0  0
   -0.8602    2.3867    1.3651 N   0  0  0  0  0  0  0  0  0  0  0  0
    1.2090   -0.3265   -1.2971 C   0  0  0  0  0  0  0  0  0  0  0  0
    1.3025   -1.0960    1.0691 C   0  0  0  0  0  0  0  0  0  0  0  0
    2.5012    0.4620   -1.1305 C   0  0  0  0  0  0  0  0  0  0  0  0
    2.6088   -0.3426    1.2931 C   0  0  0  0  0  0  0  0  0  0  0  0
    3.3310   -0.1250   -0.0144 C   0  0  0  0  0  0  0  0  0  0  0  0
   -0.8691   -0.6236   -0.0304 C   0  0  0  0  0  0  0  0  0  0  0  0
   -1.6550    0.5164    0.0211 C   0  0  0  0  0  0  0  0  0  0  0  0
   -3.0360    0.3565   -0.0045 C   0  0  0  0  0  0  0  0  0  0  0  0
   -1.0938    1.8580    0.1000 C   0  0  0  0  0  0  0  0  0  0  0  0
   -2.7090   -1.9961   -0.1269 C   0  0  0  0  0  0  0  0  0  0  0  0
   -3.5811   -0.9204   -0.0798 C   0  0  0  0  0  0  0  0  0  0  0  0
    0.5738    0.1906   -2.0268 H   0  0  0  0  0  0  0  0  0  0  0  0
    1.4230   -1.3242   -1.7009 H   0  0  0  0  0  0  0  0  0  0  0  0
    1.5085   -2.1404    0.8041 H   0  0  0  0  0  0  0  0  0  0  0  0
    0.7325   -1.0988    2.0062 H   0  0  0  0  0  0  0  0  0  0  0  0
    2.2914    1.5072   -0.8774 H   0  0  0  0  0  0  0  0  0  0  0  0
    3.0765    0.4422   -2.0615 H   0  0  0  0  0  0  0  0  0  0  0  0
    3.2533   -0.9042    1.9770 H   0  0  0  0  0  0  0  0  0  0  0  0
    2.4169    0.6423    1.7338 H   0  0  0  0  0  0  0  0  0  0  0  0
   -3.6972    1.2183    0.0333 H   0  0  0  0  0  0  0  0  0  0  0  0
   -3.0838   -3.0126   -0.1861 H   0  0  0  0  0  0  0  0  0  0  0  0
   -4.6546   -1.0690   -0.1012 H   0  0  0  0  0  0  0  0  0  0  0  0
   -1.0609    1.8654    2.2126 H   0  0  0  0  0  0  0  0  0  0  0  0
   -0.4758    3.3187    1.4783 H   0  0  0  0  0  0  0  0  0  0  0  0
  1 10  2  0  0  0  0
  2 14  2  0  0  0  0
  3  6  1  0  0  0  0
  3  7  1  0  0  0  0
  3 11  1  0  0  0  0
  4 11  1  0  0  0  0
  4 15  2  0  0  0  0
  5 14  1  0  0  0  0
  5 28  1  0  0  0  0
  5 29  1  0  0  0  0
  6  8  1  0  0  0  0
  6 17  1  0  0  0  0
  6 18  1  0  0  0  0
  7  9  1  0  0  0  0
  7 19  1  0  0  0  0
  7 20  1  0  0  0  0
  8 10  1  0  0  0  0
  8 21  1  0  0  0  0
  8 22  1  0  0  0  0
  9 10  1  0  0  0  0
  9 23  1  0  0  0  0
  9 24  1  0  0  0  0
 11 12  2  0  0  0  0
 12 13  1  0  0  0  0
 12 14  1  0  0  0  0
 13 16  2  0  0  0  0
 13 25  1  0  0  0  0
 15 16  1  0  0  0  0
 15 26  1  0  0  0  0
 16 27  1  0  0  0  0
M  END
>  <PUBCHEM_COMPOUND_CID>
24691059

>  <PUBCHEM_CONFORMER_RMSD>
0.6

>  <PUBCHEM_CONFORMER_DIVERSEORDER>
1
4
12
11
3
8
9
6
5
10
16
17
7
14
15
13
2

>  <PUBCHEM_MMFF94_PARTIAL_CHARGES>
21
1 -0.57
10 0.45
11 0.41
12 0.09
13 -0.15
14 0.54
15 0.16
16 -0.15
2 -0.57
25 0.15
26 0.15
27 0.15
28 0.37
29 0.37
3 -0.84
4 -0.62
5 -0.8
6 0.37
7 0.37
8 0.06
9 0.06

>  <PUBCHEM_EFFECTIVE_ROTOR_COUNT>
3

>  <PUBCHEM_PHARMACOPHORE_FEATURES>
7
1 1 acceptor
1 2 acceptor
1 3 cation
1 4 acceptor
1 5 donor
6 3 6 7 8 9 10 rings
6 4 11 12 13 15 16 rings

>  <PUBCHEM_HEAVY_ATOM_COUNT>
16

>  <PUBCHEM_ATOM_DEF_STEREO_COUNT>
0

>  <PUBCHEM_ATOM_UDEF_STEREO_COUNT>
0

>  <PUBCHEM_BOND_DEF_STEREO_COUNT>
0

>  <PUBCHEM_BOND_UDEF_STEREO_COUNT>
0

>  <PUBCHEM_ISOTOPIC_ATOM_COUNT>
0

>  <PUBCHEM_COMPONENT_COUNT>
1

>  <PUBCHEM_CACTVS_TAUTO_COUNT>
4

>  <PUBCHEM_CONFORMER_ID>
0178C17300000001

>  <PUBCHEM_MMFF94_ENERGY>
59.7368

>  <PUBCHEM_FEATURE_SELFOVERLAP>
35.522

>  <PUBCHEM_SHAPE_FINGERPRINT>
11132069 177 18342170085474696769
11578080 2 17535427665063379805
11680986 33 17907007727677236227
12236239 1 17967250905454062894
13538477 17 18261104154063335922
13764800 53 18058454192571966393
13839132 238 17913773821159454588
14614273 12 18265896856803693517
15375462 189 18187088398894564099
15775835 57 18116719517077700648
16945 1 18335125480163270135
17844478 74 17346601867578113928
18175812 5 17560798878688815639
19049666 15 17630336229231166254
19868273 325 18411418448942114575
200 152 17676482869339770506
20510252 161 18342176626694148809
20905425 154 17621045690846556781
22112679 90 18336562589237510005
22802520 49 17344360947053804516
228727 97 18187939407698161742
2297311 6 18271821128754853414
23236772 104 17822292353331085424
23402539 116 18342451551877596151
23419403 2 18053349331988662053
23557571 272 18273220789407599022
23559900 14 18271243825121091982
2748010 2 18124017177772591633
350125 39 17764319340373788177
427121 178 16624940576616583945
537710 114 18335139808585626261
5493415 88 18120658187014286995
5902787 121 18193557993952961083
6992083 37 17611458641079390762
7364860 26 17696754728888627017
77492 1 17894911832202446790
81228 2 18269010733799670265

>  <PUBCHEM_SHAPE_MULTIPOLES>
302.59
5.95
2.11
1.12
3.17
1.11
0.08
-1.79
-0.18
-1.69
0.18
0.64
0.21
-0.39

>  <PUBCHEM_SHAPE_SELFOVERLAP>
639.784

>  <PUBCHEM_SHAPE_VOLUME>
168.1

>  <PUBCHEM_COORDINATE_TYPE>
2
5
10

$$$$
