24706580
 OpenBabel01182520543D

 28 28  0  0  0  0  0  0  0  0999 V2000
   -0.8696   -2.4624    1.2227 O   0  0  0  0  0  0  0  0  0  0  0  0
    0.7334    0.3775    0.2303 N   0  0  0  0  0  0  0  0  0  0  0  0
    4.9644   -0.4518   -0.2893 N   0  0  0  0  0  0  0  0  0  0  0  0
   -1.0685    1.8583   -0.0274 N   0  0  0  0  0  0  0  0  0  0  0  0
   -0.5977   -2.5398   -1.0530 N   0  0  0  0  0  0  0  0  0  0  0  0
    3.1165    0.9236    0.5496 C   0  0  0  0  0  0  0  0  0  0  0  0
    1.7014    1.4375    0.3003 C   0  0  0  0  0  0  0  0  0  0  0  0
    3.6043   -0.0029   -0.5654 C   0  0  0  0  0  0  0  0  0  0  0  0
   -0.6312    0.5826    0.0690 C   0  0  0  0  0  0  0  0  0  0  0  0
   -1.4590   -0.5273    0.0165 C   0  0  0  0  0  0  0  0  0  0  0  0
   -2.8236   -0.3144   -0.1451 C   0  0  0  0  0  0  0  0  0  0  0  0
   -3.3116    0.9836   -0.2479 C   0  0  0  0  0  0  0  0  0  0  0  0
   -0.9578   -1.8905    0.1232 C   0  0  0  0  0  0  0  0  0  0  0  0
   -2.4009    2.0260   -0.1835 C   0  0  0  0  0  0  0  0  0  0  0  0
    3.7932    1.7825    0.6399 H   0  0  0  0  0  0  0  0  0  0  0  0
    3.1444    0.3910    1.5092 H   0  0  0  0  0  0  0  0  0  0  0  0
    1.6878    2.0153   -0.6319 H   0  0  0  0  0  0  0  0  0  0  0  0
    1.4388    2.1247    1.1139 H   0  0  0  0  0  0  0  0  0  0  0  0
    2.9554   -0.8799   -0.6584 H   0  0  0  0  0  0  0  0  0  0  0  0
    3.5904    0.5254   -1.5247 H   0  0  0  0  0  0  0  0  0  0  0  0
    1.0125   -0.5145    0.6254 H   0  0  0  0  0  0  0  0  0  0  0  0
   -3.5161   -1.1507   -0.1921 H   0  0  0  0  0  0  0  0  0  0  0  0
    5.2586   -1.1043   -1.0148 H   0  0  0  0  0  0  0  0  0  0  0  0
    4.9830   -0.9718    0.5872 H   0  0  0  0  0  0  0  0  0  0  0  0
   -4.3713    1.1735   -0.3743 H   0  0  0  0  0  0  0  0  0  0  0  0
   -2.7306    3.0569   -0.2586 H   0  0  0  0  0  0  0  0  0  0  0  0
   -0.6694   -2.0906   -1.9604 H   0  0  0  0  0  0  0  0  0  0  0  0
   -0.2480   -3.4920   -1.0374 H   0  0  0  0  0  0  0  0  0  0  0  0
  1 13  2  0  0  0  0
  2  7  1  0  0  0  0
  2  9  1  0  0  0  0
  2 21  1  0  0  0  0
  3  8  1  0  0  0  0
  3 23  1  0  0  0  0
  3 24  1  0  0  0  0
  4  9  1  0  0  0  0
  4 14  2  0  0  0  0
  5 13  1  0  0  0  0
  5 27  1  0  0  0  0
  5 28  1  0  0  0  0
  6  7  1  0  0  0  0
  6  8  1  0  0  0  0
  6 15  1  0  0  0  0
  6 16  1  0  0  0  0
  7 17  1  0  0  0  0
  7 18  1  0  0  0  0
  8 19  1  0  0  0  0
  8 20  1  0  0  0  0
  9 10  2  0  0  0  0
 10 11  1  0  0  0  0
 10 13  1  0  0  0  0
 11 12  2  0  0  0  0
 11 22  1  0  0  0  0
 12 14  1  0  0  0  0
 12 25  1  0  0  0  0
 14 26  1  0  0  0  0
M  END
>  <PUBCHEM_COMPOUND_CID>
24706580

>  <PUBCHEM_CONFORMER_RMSD>
0.6

>  <PUBCHEM_CONFORMER_DIVERSEORDER>
1
63
7
60
44
54
37
62
40
53
51
35
41
61
58
12
43
59
32
8
27
50
56
52
46
47
57
4
49
5
36
33
15
11
39
16
31
20
29
48
34
55
13
19
42
24
3
23
28
21
14
22
45
6
30
2
9
26
25
38
18
17
10

>  <PUBCHEM_MMFF94_PARTIAL_CHARGES>
21
1 -0.57
10 0.09
11 -0.15
12 -0.15
13 0.54
14 0.16
2 -0.87
21 0.4
22 0.15
23 0.36
24 0.36
25 0.15
26 0.15
27 0.37
28 0.37
3 -0.99
4 -0.62
5 -0.8
7 0.37
8 0.27
9 0.41

>  <PUBCHEM_EFFECTIVE_ROTOR_COUNT>
5

>  <PUBCHEM_PHARMACOPHORE_FEATURES>
8
1 1 acceptor
1 2 cation
1 2 donor
1 3 cation
1 3 donor
1 4 acceptor
1 5 donor
6 4 9 10 11 12 14 rings

>  <PUBCHEM_HEAVY_ATOM_COUNT>
14

>  <PUBCHEM_ATOM_DEF_STEREO_COUNT>
0

>  <PUBCHEM_ATOM_UDEF_STEREO_COUNT>
0

>  <PUBCHEM_BOND_DEF_STEREO_COUNT>
0

>  <PUBCHEM_BOND_UDEF_STEREO_COUNT>
0

>  <PUBCHEM_ISOTOPIC_ATOM_COUNT>
0

>  <PUBCHEM_COMPONENT_COUNT>
1

>  <PUBCHEM_CACTVS_TAUTO_COUNT>
7

>  <PUBCHEM_CONFORMER_ID>
0178FE1400000001

>  <PUBCHEM_MMFF94_ENERGY>
39.72

>  <PUBCHEM_FEATURE_SELFOVERLAP>
40.596

>  <PUBCHEM_SHAPE_FINGERPRINT>
10922049 32 18410014312701168993
11458722 379 18337956688619783238
12592029 89 18261957319346796451
12716758 59 18339355365740966184
13380535 76 18411982425271504390
15375358 24 18060416915886168620
15669948 3 18265046002291649472
16945 1 18187640353684254121
20201158 50 18131637768405607702
20279233 1 18060701715120164996
20510252 161 18343580763457769441
20524608 308 18342172305936034295
20645476 183 17675925404069934482
20645477 56 18338229470414362640
20871998 184 18197220462810728047
21524375 3 18337669720221457069
21665056 4 18335138695862471274
23402539 116 18343574144907644629
23559900 14 18343017797089096792
2748010 2 18410292476268832293
366044 4 18410854335184437817
43471831 8 18261667078510899267
559249 180 18263358093604353354
58051976 100 18260834795695639732
69090 78 18272927249809666687
7364860 26 17909826535977187493
81228 2 18048865583720771385
81539 233 18043242432322275429
8809292 202 18411421734834760664
93112 12 18409168844226281596
9709674 26 18270115850581242044

>  <PUBCHEM_SHAPE_MULTIPOLES>
262.32
6.43
2.49
0.81
8.5
1.26
-0.04
-1.31
0.88
-1.46
-0.07
0.06
0.33
0.42

>  <PUBCHEM_SHAPE_SELFOVERLAP>
532.338

>  <PUBCHEM_SHAPE_VOLUME>
151.7

>  <PUBCHEM_COORDINATE_TYPE>
2
5
10

$$$$
