24710600
 OpenBabel01182520543D

 25 25  0  0  0  0  0  0  0  0999 V2000
   -1.1994   -2.3929   -1.1176 O   0  0  0  0  0  0  0  0  0  0  0  0
    1.0882   -0.1634    0.0002 N   0  0  0  0  0  0  0  0  0  0  0  0
   -0.1509    1.8253    0.0213 N   0  0  0  0  0  0  0  0  0  0  0  0
    4.7779    0.2156   -0.0029 N   0  0  0  0  0  0  0  0  0  0  0  0
   -1.2384   -2.4293    1.1749 N   0  0  0  0  0  0  0  0  0  0  0  0
    2.3516    0.5343    0.0236 C   0  0  0  0  0  0  0  0  0  0  0  0
   -0.1427    0.4736   -0.0005 C   0  0  0  0  0  0  0  0  0  0  0  0
    3.4935   -0.4730   -0.0176 C   0  0  0  0  0  0  0  0  0  0  0  0
   -1.2860   -0.3089   -0.0240 C   0  0  0  0  0  0  0  0  0  0  0  0
   -2.5170    0.3376   -0.0257 C   0  0  0  0  0  0  0  0  0  0  0  0
   -2.5663    1.7271   -0.0039 C   0  0  0  0  0  0  0  0  0  0  0  0
   -1.2447   -1.7645   -0.0468 C   0  0  0  0  0  0  0  0  0  0  0  0
   -1.3658    2.4185    0.0191 C   0  0  0  0  0  0  0  0  0  0  0  0
    2.4240    1.1437    0.9329 H   0  0  0  0  0  0  0  0  0  0  0  0
    2.4197    1.2073   -0.8403 H   0  0  0  0  0  0  0  0  0  0  0  0
    1.1018   -1.1377    0.2834 H   0  0  0  0  0  0  0  0  0  0  0  0
    3.4218   -1.0937   -0.9182 H   0  0  0  0  0  0  0  0  0  0  0  0
    3.4376   -1.1456    0.8458 H   0  0  0  0  0  0  0  0  0  0  0  0
   -3.4439   -0.2296   -0.0441 H   0  0  0  0  0  0  0  0  0  0  0  0
   -3.5145    2.2523   -0.0047 H   0  0  0  0  0  0  0  0  0  0  0  0
   -1.3497    3.5032    0.0367 H   0  0  0  0  0  0  0  0  0  0  0  0
    4.8542    0.8185   -0.8212 H   0  0  0  0  0  0  0  0  0  0  0  0
    5.5292   -0.4686   -0.0815 H   0  0  0  0  0  0  0  0  0  0  0  0
   -1.2666   -1.9321    2.0594 H   0  0  0  0  0  0  0  0  0  0  0  0
   -1.2037   -3.4424    1.2176 H   0  0  0  0  0  0  0  0  0  0  0  0
  1 12  2  0  0  0  0
  2  6  1  0  0  0  0
  2  7  1  0  0  0  0
  2 16  1  0  0  0  0
  3  7  1  0  0  0  0
  3 13  2  0  0  0  0
  4  8  1  0  0  0  0
  4 22  1  0  0  0  0
  4 23  1  0  0  0  0
  5 12  1  0  0  0  0
  5 24  1  0  0  0  0
  5 25  1  0  0  0  0
  6  8  1  0  0  0  0
  6 14  1  0  0  0  0
  6 15  1  0  0  0  0
  7  9  2  0  0  0  0
  8 17  1  0  0  0  0
  8 18  1  0  0  0  0
  9 10  1  0  0  0  0
  9 12  1  0  0  0  0
 10 11  2  0  0  0  0
 10 19  1  0  0  0  0
 11 13  1  0  0  0  0
 11 20  1  0  0  0  0
 13 21  1  0  0  0  0
M  END
>  <PUBCHEM_COMPOUND_CID>
24710600

>  <PUBCHEM_CONFORMER_RMSD>
0.6

>  <PUBCHEM_CONFORMER_DIVERSEORDER>
2
22
19
16
14
5
17
15
20
6
18
10
21
12
11
13
7
9
3
8
1
4

>  <PUBCHEM_MMFF94_PARTIAL_CHARGES>
21
1 -0.57
10 -0.15
11 -0.15
12 0.54
13 0.16
16 0.4
19 0.15
2 -0.87
20 0.15
21 0.15
22 0.36
23 0.36
24 0.37
25 0.37
3 -0.62
4 -0.99
5 -0.8
6 0.37
7 0.41
8 0.27
9 0.09

>  <PUBCHEM_EFFECTIVE_ROTOR_COUNT>
4

>  <PUBCHEM_PHARMACOPHORE_FEATURES>
8
1 1 acceptor
1 2 cation
1 2 donor
1 3 acceptor
1 4 cation
1 4 donor
1 5 donor
6 3 7 9 10 11 13 rings

>  <PUBCHEM_HEAVY_ATOM_COUNT>
13

>  <PUBCHEM_ATOM_DEF_STEREO_COUNT>
0

>  <PUBCHEM_ATOM_UDEF_STEREO_COUNT>
0

>  <PUBCHEM_BOND_DEF_STEREO_COUNT>
0

>  <PUBCHEM_BOND_UDEF_STEREO_COUNT>
0

>  <PUBCHEM_ISOTOPIC_ATOM_COUNT>
0

>  <PUBCHEM_COMPONENT_COUNT>
1

>  <PUBCHEM_CACTVS_TAUTO_COUNT>
7

>  <PUBCHEM_CONFORMER_ID>
01790DC800000002

>  <PUBCHEM_MMFF94_ENERGY>
39.9695

>  <PUBCHEM_FEATURE_SELFOVERLAP>
40.596

>  <PUBCHEM_SHAPE_FINGERPRINT>
12716758 59 18411974763123662504
13024252 1 16515687740744686865
13380535 76 18340767022944218846
15669948 3 18410287017433892802
16945 1 18271232872474393561
193761 8 18050567649332840685
20510252 161 18200314303658234000
20524608 308 18343862208216299094
20645476 183 17748825194076535793
20645477 56 18411702054565800712
20871998 184 18342745142978089111
21524375 3 18194679272284855217
23402539 116 18343291566219063605
23559900 14 18272084960559611448
257057 1 17838606013590248167
2748010 2 18051968413886958245
3071541 12 17188413763859180261
366044 4 18339641136085814737
43471831 8 18190178971287495787
5706482 22 18267013969022598323
6333449 129 18341610399759977092
7364860 26 17477483101874115581
75552 356 18410012143626808812
81228 2 18337661039955622929
81539 233 17901385598153980725
9709674 26 18342742884374125646

>  <PUBCHEM_SHAPE_MULTIPOLES>
241.74
5.37
2.62
0.75
8.97
0.88
-0.02
-1.24
0.02
-2.23
-0.06
-0.19
0.4
0.01

>  <PUBCHEM_SHAPE_SELFOVERLAP>
494.236

>  <PUBCHEM_SHAPE_VOLUME>
139

>  <PUBCHEM_COORDINATE_TYPE>
2
5
10

$$$$
