252926
 OpenBabel01182520543D

 22 22  0  0  0  0  0  0  0  0999 V2000
   -3.1985    1.4896   -0.0012 O   0  0  0  0  0  0  0  0  0  0  0  0
    4.0511   -0.7411   -0.0122 O   0  0  0  0  0  0  0  0  0  0  0  0
   -2.2862   -0.6832    0.0012 N   0  0  0  0  0  0  0  0  0  0  0  0
   -0.4567    0.8157    0.0007 N   0  0  0  0  0  0  0  0  0  0  0  0
    3.6506    1.5168    0.0013 N   0  0  0  0  0  0  0  0  0  0  0  0
   -0.9040   -0.4602    0.0022 C   0  0  0  0  0  0  0  0  0  0  0  0
    1.7957   -0.0627    0.0025 C   0  0  0  0  0  0  0  0  0  0  0  0
   -0.0771   -1.5720    0.0037 C   0  0  0  0  0  0  0  0  0  0  0  0
    1.2973   -1.3608    0.0039 C   0  0  0  0  0  0  0  0  0  0  0  0
    0.8850    0.9816    0.0009 C   0  0  0  0  0  0  0  0  0  0  0  0
   -3.3111    0.2680   -0.0003 C   0  0  0  0  0  0  0  0  0  0  0  0
    3.2259    0.1904    0.0028 C   0  0  0  0  0  0  0  0  0  0  0  0
   -4.6720   -0.3821   -0.0056 C   0  0  0  0  0  0  0  0  0  0  0  0
   -0.4706   -2.5833    0.0048 H   0  0  0  0  0  0  0  0  0  0  0  0
    1.9608   -2.2214    0.0054 H   0  0  0  0  0  0  0  0  0  0  0  0
   -2.5714   -1.6604    0.0013 H   0  0  0  0  0  0  0  0  0  0  0  0
    1.1621    2.0281   -0.0008 H   0  0  0  0  0  0  0  0  0  0  0  0
   -4.7908   -0.9840   -0.9109 H   0  0  0  0  0  0  0  0  0  0  0  0
   -5.4498    0.3862    0.0150 H   0  0  0  0  0  0  0  0  0  0  0  0
   -4.7819   -1.0207    0.8755 H   0  0  0  0  0  0  0  0  0  0  0  0
    3.0461    2.3286    0.0081 H   0  0  0  0  0  0  0  0  0  0  0  0
    4.6448    1.7225   -0.0055 H   0  0  0  0  0  0  0  0  0  0  0  0
  1 11  2  0  0  0  0
  2 12  2  0  0  0  0
  3  6  1  0  0  0  0
  3 11  1  0  0  0  0
  3 16  1  0  0  0  0
  4  6  2  0  0  0  0
  4 10  1  0  0  0  0
  5 12  1  0  0  0  0
  5 21  1  0  0  0  0
  5 22  1  0  0  0  0
  6  8  1  0  0  0  0
  7  9  1  0  0  0  0
  7 10  2  0  0  0  0
  7 12  1  0  0  0  0
  8  9  2  0  0  0  0
  8 14  1  0  0  0  0
  9 15  1  0  0  0  0
 10 17  1  0  0  0  0
 11 13  1  0  0  0  0
 13 18  1  0  0  0  0
 13 19  1  0  0  0  0
 13 20  1  0  0  0  0
M  END
>  <PUBCHEM_COMPOUND_CID>
252926

>  <PUBCHEM_CONFORMER_RMSD>
0.6

>  <PUBCHEM_CONFORMER_DIVERSEORDER>
1
6
7
12
8
2
11
5
9
10
3
4
14
13

>  <PUBCHEM_MMFF94_PARTIAL_CHARGES>
19
1 -0.57
10 0.16
11 0.57
12 0.54
13 0.06
14 0.15
15 0.15
16 0.37
17 0.15
2 -0.57
21 0.37
22 0.37
3 -0.55
4 -0.62
5 -0.8
6 0.43
7 0.09
8 -0.15
9 -0.15

>  <PUBCHEM_EFFECTIVE_ROTOR_COUNT>
3

>  <PUBCHEM_PHARMACOPHORE_FEATURES>
5
1 1 acceptor
1 2 acceptor
1 3 donor
1 5 donor
6 4 6 7 8 9 10 rings

>  <PUBCHEM_HEAVY_ATOM_COUNT>
13

>  <PUBCHEM_ATOM_DEF_STEREO_COUNT>
0

>  <PUBCHEM_ATOM_UDEF_STEREO_COUNT>
0

>  <PUBCHEM_BOND_DEF_STEREO_COUNT>
0

>  <PUBCHEM_BOND_UDEF_STEREO_COUNT>
0

>  <PUBCHEM_ISOTOPIC_ATOM_COUNT>
0

>  <PUBCHEM_COMPONENT_COUNT>
1

>  <PUBCHEM_CACTVS_TAUTO_COUNT>
9

>  <PUBCHEM_CONFORMER_ID>
0003DBFE00000001

>  <PUBCHEM_MMFF94_ENERGY>
35.0608

>  <PUBCHEM_FEATURE_SELFOVERLAP>
25.371

>  <PUBCHEM_SHAPE_FINGERPRINT>
10219947 1 18261114075411285996
10608611 8 18409445864815458597
11062470 55 18411138047506676875
11401426 45 18343576348130616202
11471102 20 18410570695385876580
11543360 7 15697710518994215400
12032990 46 18410862040081596678
12346645 44 18410291406531662811
13081056 2 18411700988965304061
13380535 76 18410013238643411923
14325111 11 18410575093274151488
14415576 193 18410015424902695332
18186145 218 18409165502446008036
193761 8 17689998929815061570
20645477 70 18271811190100687038
23402539 116 18131343098788216844
23402655 69 18341885252667192517
23463225 33 18335417929076957618
23559900 14 18273216431017983320
366044 4 18410574006869335538
4990 188 18060427893268761078
5104073 3 18410012113509265113
528886 8 18411414024925456690
53812653 166 18342171197992597768
69090 78 18130503119386924879

>  <PUBCHEM_SHAPE_MULTIPOLES>
240.85
7.67
1.46
0.58
3.01
0.01
0
1.19
0.02
-0.34
0
0.01
-0.02
0

>  <PUBCHEM_SHAPE_SELFOVERLAP>
500.141

>  <PUBCHEM_SHAPE_VOLUME>
135.5

>  <PUBCHEM_COORDINATE_TYPE>
2
5
10

$$$$
