25550608
 OpenBabel01182520543D

 33 34  0  0  0  0  0  0  0  0999 V2000
   -0.8076    2.5196   -0.8976 O   0  0  0  0  0  0  0  0  0  0  0  0
    0.5614   -0.4851   -0.0442 N   0  0  0  0  0  0  0  0  0  0  0  0
   -1.3303   -1.8863   -0.1419 N   0  0  0  0  0  0  0  0  0  0  0  0
   -0.7948    2.3562    1.3896 N   0  0  0  0  0  0  0  0  0  0  0  0
    3.7755   -0.4769    0.6605 C   0  0  0  0  0  0  0  0  0  0  0  0
    3.7138    0.1839   -0.7088 C   0  0  0  0  0  0  0  0  0  0  0  0
    2.5201   -0.2870    1.5044 C   0  0  0  0  0  0  0  0  0  0  0  0
    2.5369   -0.2650   -1.5680 C   0  0  0  0  0  0  0  0  0  0  0  0
    1.3345   -1.1234    1.0233 C   0  0  0  0  0  0  0  0  0  0  0  0
    1.1962    0.3029   -1.1026 C   0  0  0  0  0  0  0  0  0  0  0  0
   -0.8315   -0.6330   -0.0528 C   0  0  0  0  0  0  0  0  0  0  0  0
   -1.6123    0.5087    0.0277 C   0  0  0  0  0  0  0  0  0  0  0  0
   -2.9942    0.3544    0.0159 C   0  0  0  0  0  0  0  0  0  0  0  0
   -1.0451    1.8471    0.1197 C   0  0  0  0  0  0  0  0  0  0  0  0
   -2.6777   -1.9971   -0.1505 C   0  0  0  0  0  0  0  0  0  0  0  0
   -3.5450   -0.9191   -0.0746 C   0  0  0  0  0  0  0  0  0  0  0  0
    4.6289   -0.0532    1.2045 H   0  0  0  0  0  0  0  0  0  0  0  0
    3.9870   -1.5471    0.5444 H   0  0  0  0  0  0  0  0  0  0  0  0
    4.6436   -0.0516   -1.2416 H   0  0  0  0  0  0  0  0  0  0  0  0
    3.6966    1.2745   -0.5920 H   0  0  0  0  0  0  0  0  0  0  0  0
    2.7650   -0.6161    2.5226 H   0  0  0  0  0  0  0  0  0  0  0  0
    2.2551    0.7745    1.5755 H   0  0  0  0  0  0  0  0  0  0  0  0
    2.7202    0.1096   -2.5835 H   0  0  0  0  0  0  0  0  0  0  0  0
    2.5019   -1.3583   -1.6407 H   0  0  0  0  0  0  0  0  0  0  0  0
    1.6586   -2.1193    0.6988 H   0  0  0  0  0  0  0  0  0  0  0  0
    0.6783   -1.2790    1.8904 H   0  0  0  0  0  0  0  0  0  0  0  0
    1.3512    1.3340   -0.7700 H   0  0  0  0  0  0  0  0  0  0  0  0
    0.5381    0.3322   -1.9810 H   0  0  0  0  0  0  0  0  0  0  0  0
   -3.6515    1.2178    0.0759 H   0  0  0  0  0  0  0  0  0  0  0  0
   -3.0569   -3.0110   -0.2227 H   0  0  0  0  0  0  0  0  0  0  0  0
   -4.6193   -1.0635   -0.0857 H   0  0  0  0  0  0  0  0  0  0  0  0
   -0.9873    1.8231    2.2316 H   0  0  0  0  0  0  0  0  0  0  0  0
   -0.4052    3.2849    1.5119 H   0  0  0  0  0  0  0  0  0  0  0  0
  1 14  2  0  0  0  0
  2  9  1  0  0  0  0
  2 10  1  0  0  0  0
  2 11  1  0  0  0  0
  3 11  1  0  0  0  0
  3 15  2  0  0  0  0
  4 14  1  0  0  0  0
  4 32  1  0  0  0  0
  4 33  1  0  0  0  0
  5  6  1  0  0  0  0
  5  7  1  0  0  0  0
  5 17  1  0  0  0  0
  5 18  1  0  0  0  0
  6  8  1  0  0  0  0
  6 19  1  0  0  0  0
  6 20  1  0  0  0  0
  7  9  1  0  0  0  0
  7 21  1  0  0  0  0
  7 22  1  0  0  0  0
  8 10  1  0  0  0  0
  8 23  1  0  0  0  0
  8 24  1  0  0  0  0
  9 25  1  0  0  0  0
  9 26  1  0  0  0  0
 10 27  1  0  0  0  0
 10 28  1  0  0  0  0
 11 12  2  0  0  0  0
 12 13  1  0  0  0  0
 12 14  1  0  0  0  0
 13 16  2  0  0  0  0
 13 29  1  0  0  0  0
 15 16  1  0  0  0  0
 15 30  1  0  0  0  0
 16 31  1  0  0  0  0
M  END
>  <PUBCHEM_COMPOUND_CID>
25550608

>  <PUBCHEM_CONFORMER_RMSD>
0.6

>  <PUBCHEM_CONFORMER_DIVERSEORDER>
1
9
19
12
6
3
8
4
18
17
10
16
2
15
11
13
14
5
7

>  <PUBCHEM_MMFF94_PARTIAL_CHARGES>
17
1 -0.57
10 0.37
11 0.41
12 0.09
13 -0.15
14 0.54
15 0.16
16 -0.15
2 -0.84
29 0.15
3 -0.62
30 0.15
31 0.15
32 0.37
33 0.37
4 -0.8
9 0.37

>  <PUBCHEM_EFFECTIVE_ROTOR_COUNT>
3.4

>  <PUBCHEM_PHARMACOPHORE_FEATURES>
6
1 1 acceptor
1 2 cation
1 3 acceptor
1 4 donor
6 3 11 12 13 15 16 rings
7 2 5 6 7 8 9 10 rings

>  <PUBCHEM_HEAVY_ATOM_COUNT>
16

>  <PUBCHEM_ATOM_DEF_STEREO_COUNT>
0

>  <PUBCHEM_ATOM_UDEF_STEREO_COUNT>
0

>  <PUBCHEM_BOND_DEF_STEREO_COUNT>
0

>  <PUBCHEM_BOND_UDEF_STEREO_COUNT>
0

>  <PUBCHEM_ISOTOPIC_ATOM_COUNT>
0

>  <PUBCHEM_COMPONENT_COUNT>
1

>  <PUBCHEM_CACTVS_TAUTO_COUNT>
2

>  <PUBCHEM_CONFORMER_ID>
0185DF1000000001

>  <PUBCHEM_MMFF94_ENERGY>
63.0978

>  <PUBCHEM_FEATURE_SELFOVERLAP>
30.446

>  <PUBCHEM_SHAPE_FINGERPRINT>
11132069 177 18343018882808123521
11578080 2 17679829817121184404
12236239 1 17967250905543720686
13083527 12 17122233553540699367
13296909 8 18116976833058277256
13538477 17 18260264131532704598
13764800 53 18058171617999225425
14181834 199 17768227365571193733
14614273 12 18265894649153580085
15219456 202 17203327797439577186
15375462 189 18114187475069285619
15775835 57 18115877308461469600
16752209 62 18335976472325225223
16945 1 18408600340547401933
17844478 74 17275106115455380952
18175812 5 17489868275489953558
19049666 15 17559120861131730670
19868273 325 18411138069150396423
200 152 17530678822898086242
20510252 161 18342740676138157344
20905425 154 17620763120500250301
22112679 90 18335150799037860125
22802520 49 17201929111427838072
228727 97 18115040687323001070
23236772 104 17894351046917603376
232386 152 18336823207816257311
23388829 49 17894910715668991220
23402539 116 18342451551882831934
23419403 2 17908944972354649037
23557571 272 18273219707397515750
23559900 14 18200882777493018302
2748010 2 18196078066045115313
350125 39 17764319340326295923
427121 178 16768210235918815457
474 4 17315085595730345148
537710 114 18333168379836632983
53812654 25 18409442626642109111
5902787 121 18194120939516430515
6992083 37 17538554423188315082
7364860 26 17697037303266182585
77492 1 17894912927487646582
81228 2 18341629078678080209

>  <PUBCHEM_SHAPE_MULTIPOLES>
308.46
5.91
2.09
1.26
2.19
1.01
0.06
-1.78
-0.18
-1.7
0.18
1.08
0.19
-0.44

>  <PUBCHEM_SHAPE_SELFOVERLAP>
642.303

>  <PUBCHEM_SHAPE_VOLUME>
170.6

>  <PUBCHEM_COORDINATE_TYPE>
2
5
10

$$$$
