25587592
 OpenBabel01182520543D

 33 34  0  0  1  0  0  0  0  0999 V2000
   -1.2991    2.8187    0.2205 O   0  0  0  0  0  0  0  0  0  0  0  0
   -0.4189   -0.1924    1.5079 N   0  0  0  0  0  0  0  0  0  0  0  0
   -2.0915   -1.5885    0.6118 N   0  0  0  0  0  0  0  0  0  0  0  0
    0.2386    1.8657   -1.1886 N   0  0  0  0  0  0  0  0  0  0  0  0
    0.7216   -1.0756    1.6211 C   0  0  0  0  0  0  0  0  0  0  0  0
    1.7649   -0.7324    0.6123 C   0  0  0  0  0  0  0  0  0  0  0  0
   -1.4209   -0.4159    0.5556 C   0  0  0  0  0  0  0  0  0  0  0  0
   -0.5119    0.9463    2.4205 C   0  0  0  0  0  0  0  0  0  0  0  0
   -1.6633    0.5720   -0.3852 C   0  0  0  0  0  0  0  0  0  0  0  0
    1.7421   -1.3324   -0.6466 C   0  0  0  0  0  0  0  0  0  0  0  0
    2.7637    0.1888    0.9280 C   0  0  0  0  0  0  0  0  0  0  0  0
   -2.6579    0.3417   -1.3291 C   0  0  0  0  0  0  0  0  0  0  0  0
    2.7180   -1.0114   -1.5900 C   0  0  0  0  0  0  0  0  0  0  0  0
    3.7397    0.5099   -0.0155 C   0  0  0  0  0  0  0  0  0  0  0  0
   -3.3696   -0.8525   -1.3038 C   0  0  0  0  0  0  0  0  0  0  0  0
   -0.9213    1.8248   -0.4221 C   0  0  0  0  0  0  0  0  0  0  0  0
   -3.0509   -1.7767   -0.3220 C   0  0  0  0  0  0  0  0  0  0  0  0
    3.7168   -0.0902   -1.2745 C   0  0  0  0  0  0  0  0  0  0  0  0
    0.4172   -2.1248    1.5093 H   0  0  0  0  0  0  0  0  0  0  0  0
    1.1543   -1.0220    2.6290 H   0  0  0  0  0  0  0  0  0  0  0  0
   -0.2620    0.6312    3.4400 H   0  0  0  0  0  0  0  0  0  0  0  0
   -1.5253    1.3606    2.4619 H   0  0  0  0  0  0  0  0  0  0  0  0
    0.1931    1.7334    2.1362 H   0  0  0  0  0  0  0  0  0  0  0  0
    0.9699   -2.0517   -0.9060 H   0  0  0  0  0  0  0  0  0  0  0  0
    2.7922    0.6646    1.9046 H   0  0  0  0  0  0  0  0  0  0  0  0
   -2.8871    1.0842   -2.0890 H   0  0  0  0  0  0  0  0  0  0  0  0
    2.6998   -1.4780   -2.5705 H   0  0  0  0  0  0  0  0  0  0  0  0
    4.5169    1.2277    0.2297 H   0  0  0  0  0  0  0  0  0  0  0  0
   -4.1490   -1.0537   -2.0298 H   0  0  0  0  0  0  0  0  0  0  0  0
   -3.5765   -2.7238   -0.2591 H   0  0  0  0  0  0  0  0  0  0  0  0
    4.4763    0.1603   -2.0093 H   0  0  0  0  0  0  0  0  0  0  0  0
    0.5566    1.0678   -1.7287 H   0  0  0  0  0  0  0  0  0  0  0  0
    0.8006    2.7087   -1.2402 H   0  0  0  0  0  0  0  0  0  0  0  0
  1 16  2  0  0  0  0
  2  5  1  0  0  0  0
  2  7  1  0  0  0  0
  2  8  1  0  0  0  0
  3  7  1  0  0  0  0
  3 17  2  0  0  0  0
  4 16  1  0  0  0  0
  4 32  1  0  0  0  0
  4 33  1  0  0  0  0
  5  6  1  0  0  0  0
  5 19  1  0  0  0  0
  5 20  1  0  0  0  0
  6 10  2  0  0  0  0
  6 11  1  0  0  0  0
  7  9  2  0  0  0  0
  8 21  1  0  0  0  0
  8 22  1  0  0  0  0
  8 23  1  0  0  0  0
  9 12  1  0  0  0  0
  9 16  1  0  0  0  0
 10 13  1  0  0  0  0
 10 24  1  0  0  0  0
 11 14  2  0  0  0  0
 11 25  1  0  0  0  0
 12 15  2  0  0  0  0
 12 26  1  0  0  0  0
 13 18  2  0  0  0  0
 13 27  1  0  0  0  0
 14 18  1  0  0  0  0
 14 28  1  0  0  0  0
 15 17  1  0  0  0  0
 15 29  1  0  0  0  0
 17 30  1  0  0  0  0
 18 31  1  0  0  0  0
M  END
>  <PUBCHEM_COMPOUND_CID>
25587592

>  <PUBCHEM_CONFORMER_RMSD>
0.6

>  <PUBCHEM_CONFORMER_DIVERSEORDER>
9
35
42
30
59
43
23
60
52
20
32
26
18
36
21
53
51
14
44
47
8
19
56
5
55
48
6
27
54
11
38
45
15
39
13
12
49
57
41
46
29
58
28
50
7
33
25
10
22
40
2
1
34
31
37
17
16
4
3
24

>  <PUBCHEM_MMFF94_PARTIAL_CHARGES>
28
1 -0.57
10 -0.15
11 -0.15
12 -0.15
13 -0.15
14 -0.15
15 -0.15
16 0.54
17 0.16
18 -0.15
2 -0.84
24 0.15
25 0.15
26 0.15
27 0.15
28 0.15
29 0.15
3 -0.62
30 0.15
31 0.15
32 0.37
33 0.37
4 -0.8
5 0.51
6 -0.14
7 0.41
8 0.37
9 0.09

>  <PUBCHEM_EFFECTIVE_ROTOR_COUNT>
4

>  <PUBCHEM_PHARMACOPHORE_FEATURES>
6
1 1 acceptor
1 2 cation
1 3 acceptor
1 4 donor
6 3 7 9 12 15 17 rings
6 6 10 11 13 14 18 rings

>  <PUBCHEM_HEAVY_ATOM_COUNT>
18

>  <PUBCHEM_ATOM_DEF_STEREO_COUNT>
0

>  <PUBCHEM_ATOM_UDEF_STEREO_COUNT>
0

>  <PUBCHEM_BOND_DEF_STEREO_COUNT>
0

>  <PUBCHEM_BOND_UDEF_STEREO_COUNT>
0

>  <PUBCHEM_ISOTOPIC_ATOM_COUNT>
0

>  <PUBCHEM_COMPONENT_COUNT>
1

>  <PUBCHEM_CACTVS_TAUTO_COUNT>
2

>  <PUBCHEM_CONFORMER_ID>
01866F8800000009

>  <PUBCHEM_MMFF94_ENERGY>
75.1911

>  <PUBCHEM_FEATURE_SELFOVERLAP>
30.446

>  <PUBCHEM_SHAPE_FINGERPRINT>
11640471 11 17023177167835022420
12011746 2 12175639368525807209
12202030 40 17489293149404643766
13299463 15 18201435835667361946
13693222 7 17169280251696404948
13764800 53 17024903418476449232
14817 1 8501788450219862441
15276787 5 8286206054310580038
15775835 57 16660359264408264406
16945 1 18410286999773897995
17134986 127 17398943882453744317
17492 54 17834103530775395580
18186145 218 15574987330274509442
18981168 100 15865787222467165394
192875 21 16878211013984323980
19765921 60 16515672321896444985
20361792 2 15123497091201068618
20645476 183 16339232449673051618
20905425 154 17177444447523502158
21731516 1 14045729396949614290
22802520 49 18268713800998596214
23402539 116 18261664944075540198
23419403 2 17694791018090441866
23557571 272 18410004455424352474
23559900 14 17895184533431195608
27216 239 13046529586319445678
2748010 2 17029671158476401315
353137 74 17967805012238399465
474 4 15285347397485450815
5262128 65 18336563671769703076
576247 118 18059284452894738459
5895379 119 13703108439799462727
6786 2 12344396622024994760
81228 2 18337110064466130665
84936 31 17270864371273177233
9981440 41 17023466481723459376

>  <PUBCHEM_SHAPE_MULTIPOLES>
349.62
5.76
2.01
1.86
2.28
0.8
0.49
-2.21
-2.14
-1
-0.27
0.03
0.32
0.43

>  <PUBCHEM_SHAPE_SELFOVERLAP>
747.201

>  <PUBCHEM_SHAPE_VOLUME>
193.4

>  <PUBCHEM_COORDINATE_TYPE>
2
5
10

$$$$
