25652799
 OpenBabel01182520543D

 33 34  0  0  0  0  0  0  0  0999 V2000
    0.7242   -2.5071    0.9342 O   0  0  0  0  0  0  0  0  0  0  0  0
   -0.4736    0.5327    0.0271 N   0  0  0  0  0  0  0  0  0  0  0  0
    1.4826    1.8433    0.0956 N   0  0  0  0  0  0  0  0  0  0  0  0
    0.7387   -2.3923   -1.3561 N   0  0  0  0  0  0  0  0  0  0  0  0
   -3.3676    0.4806    0.1097 C   0  0  0  0  0  0  0  0  0  0  0  0
   -2.6001    0.5304   -1.2151 C   0  0  0  0  0  0  0  0  0  0  0  0
   -2.5191   -0.2377    1.1640 C   0  0  0  0  0  0  0  0  0  0  0  0
   -1.2288    1.1847   -1.0480 C   0  0  0  0  0  0  0  0  0  0  0  0
   -1.1514    0.4236    1.3260 C   0  0  0  0  0  0  0  0  0  0  0  0
   -4.7160   -0.2130   -0.0683 C   0  0  0  0  0  0  0  0  0  0  0  0
    0.9242    0.6137    0.0338 C   0  0  0  0  0  0  0  0  0  0  0  0
    1.6493   -0.5654   -0.0258 C   0  0  0  0  0  0  0  0  0  0  0  0
    3.0370   -0.4770   -0.0215 C   0  0  0  0  0  0  0  0  0  0  0  0
    1.0186   -1.8764   -0.0951 C   0  0  0  0  0  0  0  0  0  0  0  0
    2.8337    1.8898    0.0979 C   0  0  0  0  0  0  0  0  0  0  0  0
    3.6483    0.7703    0.0415 C   0  0  0  0  0  0  0  0  0  0  0  0
   -3.5548    1.5083    0.4478 H   0  0  0  0  0  0  0  0  0  0  0  0
   -3.1765    1.0841   -1.9656 H   0  0  0  0  0  0  0  0  0  0  0  0
   -2.4664   -0.4883   -1.6026 H   0  0  0  0  0  0  0  0  0  0  0  0
   -2.3795   -1.2876    0.8744 H   0  0  0  0  0  0  0  0  0  0  0  0
   -3.0379   -0.2388    2.1298 H   0  0  0  0  0  0  0  0  0  0  0  0
   -0.6846    1.1049   -1.9971 H   0  0  0  0  0  0  0  0  0  0  0  0
   -1.3432    2.2520   -0.8221 H   0  0  0  0  0  0  0  0  0  0  0  0
   -1.2643    1.4239    1.7621 H   0  0  0  0  0  0  0  0  0  0  0  0
   -0.5566   -0.1713    2.0298 H   0  0  0  0  0  0  0  0  0  0  0  0
   -4.5916   -1.2474   -0.4063 H   0  0  0  0  0  0  0  0  0  0  0  0
   -5.3281    0.3134   -0.8082 H   0  0  0  0  0  0  0  0  0  0  0  0
   -5.2710   -0.2297    0.8755 H   0  0  0  0  0  0  0  0  0  0  0  0
    3.6522   -1.3718   -0.0669 H   0  0  0  0  0  0  0  0  0  0  0  0
    3.2612    2.8857    0.1481 H   0  0  0  0  0  0  0  0  0  0  0  0
    4.7282    0.8633    0.0461 H   0  0  0  0  0  0  0  0  0  0  0  0
    0.9636   -1.8871   -2.2073 H   0  0  0  0  0  0  0  0  0  0  0  0
    0.2937   -3.2978   -1.4624 H   0  0  0  0  0  0  0  0  0  0  0  0
  1 14  2  0  0  0  0
  2  8  1  0  0  0  0
  2  9  1  0  0  0  0
  2 11  1  0  0  0  0
  3 11  1  0  0  0  0
  3 15  2  0  0  0  0
  4 14  1  0  0  0  0
  4 32  1  0  0  0  0
  4 33  1  0  0  0  0
  5  6  1  0  0  0  0
  5  7  1  0  0  0  0
  5 10  1  0  0  0  0
  5 17  1  0  0  0  0
  6  8  1  0  0  0  0
  6 18  1  0  0  0  0
  6 19  1  0  0  0  0
  7  9  1  0  0  0  0
  7 20  1  0  0  0  0
  7 21  1  0  0  0  0
  8 22  1  0  0  0  0
  8 23  1  0  0  0  0
  9 24  1  0  0  0  0
  9 25  1  0  0  0  0
 10 26  1  0  0  0  0
 10 27  1  0  0  0  0
 10 28  1  0  0  0  0
 11 12  2  0  0  0  0
 12 13  1  0  0  0  0
 12 14  1  0  0  0  0
 13 16  2  0  0  0  0
 13 29  1  0  0  0  0
 15 16  1  0  0  0  0
 15 30  1  0  0  0  0
 16 31  1  0  0  0  0
M  END
>  <PUBCHEM_COMPOUND_CID>
25652799

>  <PUBCHEM_CONFORMER_RMSD>
0.6

>  <PUBCHEM_CONFORMER_DIVERSEORDER>
1
6
16
7
17
18
14
3
23
13
4
19
10
21
22
12
8
9
5
2
15
11
20

>  <PUBCHEM_MMFF94_PARTIAL_CHARGES>
17
1 -0.57
11 0.41
12 0.09
13 -0.15
14 0.54
15 0.16
16 -0.15
2 -0.84
29 0.15
3 -0.62
30 0.15
31 0.15
32 0.37
33 0.37
4 -0.8
8 0.37
9 0.37

>  <PUBCHEM_EFFECTIVE_ROTOR_COUNT>
3.2

>  <PUBCHEM_PHARMACOPHORE_FEATURES>
6
1 1 acceptor
1 2 cation
1 3 acceptor
1 4 donor
6 2 5 6 7 8 9 rings
6 3 11 12 13 15 16 rings

>  <PUBCHEM_HEAVY_ATOM_COUNT>
16

>  <PUBCHEM_ATOM_DEF_STEREO_COUNT>
0

>  <PUBCHEM_ATOM_UDEF_STEREO_COUNT>
0

>  <PUBCHEM_BOND_DEF_STEREO_COUNT>
0

>  <PUBCHEM_BOND_UDEF_STEREO_COUNT>
0

>  <PUBCHEM_ISOTOPIC_ATOM_COUNT>
0

>  <PUBCHEM_COMPONENT_COUNT>
1

>  <PUBCHEM_CACTVS_TAUTO_COUNT>
2

>  <PUBCHEM_CONFORMER_ID>
01876E3F00000001

>  <PUBCHEM_MMFF94_ENERGY>
57.8742

>  <PUBCHEM_FEATURE_SELFOVERLAP>
30.446

>  <PUBCHEM_SHAPE_FINGERPRINT>
107287 299 18408327670047991244
11471102 20 18410572877118765901
12119455 92 18334287712617336288
12236239 1 17490153014657828241
12326174 3 18340207362972688862
12592029 89 18335132090091779738
13380535 76 18409450318664798755
13538477 17 16988833991198623413
13760787 19 17917711310386242485
14251717 144 18412545409658322075
15207287 21 17894630352925332179
15219456 202 18187079525312821165
15279307 12 17775563139547978463
15309172 13 18410858801787025312
15375358 24 17967248694147058317
15775835 57 18411981403090224628
15852999 172 17022626346980268547
16752209 62 16271636777390710605
16945 1 18335412439897646336
18175812 5 17968380138250129045
18186145 218 18201999966863598156
19049666 15 17825101511304265781
19422 9 17346326963864423253
200 152 18272366473494987793
20201158 50 18187649072356848411
20279233 1 17894635846615725881
20344682 1 18040714787806795389
204376 136 18339360893796509528
20645477 70 18341043022206782087
21501502 16 18117276943529047505
21524375 3 18339642338671317962
21730867 7 18409449167602747461
23402539 116 17240754112571355429
23419403 2 15867966428606717258
23557571 272 16805321042515405205
23559900 14 17094962130692812122
257057 1 17469310444787924426
2748010 2 18193291890616444274
3060560 45 18411698803022077588
33824 294 18407758140431688227
474 4 17344612971577540904
581208 293 18411699893658849385
69090 78 18260544571707016795
77492 1 17489870431621714225
81228 2 17472964572972007786
81539 233 18333730217071803942
8272917 22 18201166438571074453

>  <PUBCHEM_SHAPE_MULTIPOLES>
308.46
6.42
2.09
1.11
4.05
1.14
-0.03
-1.41
0.01
-1.6
-0.21
0.6
0.17
0.34

>  <PUBCHEM_SHAPE_SELFOVERLAP>
643.799

>  <PUBCHEM_SHAPE_VOLUME>
174.1

>  <PUBCHEM_COORDINATE_TYPE>
2
5
10

$$$$
