261592
 OpenBabel01182520543D

 27 28  0  0  0  0  0  0  0  0999 V2000
    4.2336   -1.0795   -0.0477 O   0  0  0  0  0  0  0  0  0  0  0  0
   -2.0491    0.0106   -0.0006 N   0  0  0  0  0  0  0  0  0  0  0  0
    0.0421    1.1938    0.0402 N   0  0  0  0  0  0  0  0  0  0  0  0
    4.2085    1.2116    0.0452 N   0  0  0  0  0  0  0  0  0  0  0  0
   -4.2752   -0.6927    0.2822 C   0  0  0  0  0  0  0  0  0  0  0  0
   -4.2742    0.7175   -0.2817 C   0  0  0  0  0  0  0  0  0  0  0  0
   -2.8706   -1.1967   -0.0411 C   0  0  0  0  0  0  0  0  0  0  0  0
   -2.8687    1.2192    0.0409 C   0  0  0  0  0  0  0  0  0  0  0  0
   -0.6708    0.0095    0.0001 C   0  0  0  0  0  0  0  0  0  0  0  0
    0.0248   -1.2224   -0.0407 C   0  0  0  0  0  0  0  0  0  0  0  0
    1.4151   -1.2398   -0.0402 C   0  0  0  0  0  0  0  0  0  0  0  0
    2.1198   -0.0418    0.0007 C   0  0  0  0  0  0  0  0  0  0  0  0
    1.3929    1.1372    0.0396 C   0  0  0  0  0  0  0  0  0  0  0  0
    3.5720   -0.0265    0.0032 C   0  0  0  0  0  0  0  0  0  0  0  0
   -4.4222   -0.6593    1.3685 H   0  0  0  0  0  0  0  0  0  0  0  0
   -5.0563   -1.3245   -0.1497 H   0  0  0  0  0  0  0  0  0  0  0  0
   -4.4210    0.6848   -1.3682 H   0  0  0  0  0  0  0  0  0  0  0  0
   -5.0540    1.3508    0.1503 H   0  0  0  0  0  0  0  0  0  0  0  0
   -2.5726   -1.9435    0.7025 H   0  0  0  0  0  0  0  0  0  0  0  0
   -2.8396   -1.6422   -1.0419 H   0  0  0  0  0  0  0  0  0  0  0  0
   -2.5463    1.9667   -0.6916 H   0  0  0  0  0  0  0  0  0  0  0  0
   -2.8322    1.6597    1.0435 H   0  0  0  0  0  0  0  0  0  0  0  0
   -0.4926   -2.1759   -0.0818 H   0  0  0  0  0  0  0  0  0  0  0  0
    1.9289   -2.1967   -0.0735 H   0  0  0  0  0  0  0  0  0  0  0  0
    1.8378    2.1235    0.0727 H   0  0  0  0  0  0  0  0  0  0  0  0
    3.7454    2.1108    0.0826 H   0  0  0  0  0  0  0  0  0  0  0  0
    5.2230    1.2515    0.0409 H   0  0  0  0  0  0  0  0  0  0  0  0
  1 14  2  0  0  0  0
  2  7  1  0  0  0  0
  2  8  1  0  0  0  0
  2  9  1  0  0  0  0
  3  9  2  0  0  0  0
  3 13  1  0  0  0  0
  4 14  1  0  0  0  0
  4 26  1  0  0  0  0
  4 27  1  0  0  0  0
  5  6  1  0  0  0  0
  5  7  1  0  0  0  0
  5 15  1  0  0  0  0
  5 16  1  0  0  0  0
  6  8  1  0  0  0  0
  6 17  1  0  0  0  0
  6 18  1  0  0  0  0
  7 19  1  0  0  0  0
  7 20  1  0  0  0  0
  8 21  1  0  0  0  0
  8 22  1  0  0  0  0
  9 10  1  0  0  0  0
 10 11  2  0  0  0  0
 10 23  1  0  0  0  0
 11 12  1  0  0  0  0
 11 24  1  0  0  0  0
 12 13  2  0  0  0  0
 12 14  1  0  0  0  0
 13 25  1  0  0  0  0
M  END
>  <PUBCHEM_COMPOUND_CID>
261592

>  <PUBCHEM_CONFORMER_RMSD>
0.6

>  <PUBCHEM_CONFORMER_DIVERSEORDER>
1
4
2
3

>  <PUBCHEM_MMFF94_PARTIAL_CHARGES>
17
1 -0.57
10 -0.15
11 -0.15
12 0.09
13 0.16
14 0.54
2 -0.84
23 0.15
24 0.15
25 0.15
26 0.37
27 0.37
3 -0.62
4 -0.8
7 0.37
8 0.37
9 0.41

>  <PUBCHEM_EFFECTIVE_ROTOR_COUNT>
3

>  <PUBCHEM_PHARMACOPHORE_FEATURES>
5
1 1 acceptor
1 4 donor
3 2 3 9 cation
5 2 5 6 7 8 rings
6 3 9 10 11 12 13 rings

>  <PUBCHEM_HEAVY_ATOM_COUNT>
14

>  <PUBCHEM_ATOM_DEF_STEREO_COUNT>
0

>  <PUBCHEM_ATOM_UDEF_STEREO_COUNT>
0

>  <PUBCHEM_BOND_DEF_STEREO_COUNT>
0

>  <PUBCHEM_BOND_UDEF_STEREO_COUNT>
0

>  <PUBCHEM_ISOTOPIC_ATOM_COUNT>
0

>  <PUBCHEM_COMPONENT_COUNT>
1

>  <PUBCHEM_CACTVS_TAUTO_COUNT>
2

>  <PUBCHEM_CONFORMER_ID>
0003FDD800000001

>  <PUBCHEM_MMFF94_ENERGY>
45.8129

>  <PUBCHEM_FEATURE_SELFOVERLAP>
25.371

>  <PUBCHEM_SHAPE_FINGERPRINT>
10608611 8 18410007728463939853
11132069 177 18410288125018406042
11401426 45 18412538816857135970
11471102 20 18411696582465885052
11806522 49 18338233872771177967
12032990 46 18411986844935224686
13380535 76 18410294705204222275
13675066 3 18412824711323591242
13690532 89 18410293597060078666
14144814 61 18411138004979003731
14325111 11 18410575093279426240
14943859 89 18413387648365827771
15196674 1 18410575088963320967
15536298 74 18342739619976934030
18186145 218 17894625946515732910
18522853 276 18413672417893749417
200 152 18131625704148343839
20201158 50 18410294692403417683
20279233 1 18412549795157755887
20645477 70 18272370828275620550
21267235 1 18411146813561717507
22485316 2 18408319990646517874
23402539 116 18343575244113031335
23402655 69 18270108021146291469
23463225 33 18408322172716660134
23557571 272 17386287580257531397
23559900 14 18411699855700748770
3312278 4 18412827971578282929
42 15 18408042905094702731
4990 188 18131078108360264006
5104073 3 18410575084721115161
69090 78 18130783490382973639
77779 3 18410294713519343591
8809292 202 18260553372132338979

>  <PUBCHEM_SHAPE_MULTIPOLES>
267.3
8.59
1.46
0.6
0.08
0
0
0.34
0.01
0.04
0
-0.09
-0.01
0.14

>  <PUBCHEM_SHAPE_SELFOVERLAP>
562.724

>  <PUBCHEM_SHAPE_VOLUME>
150.7

>  <PUBCHEM_COORDINATE_TYPE>
2
5
10

$$$$
