28103819
 OpenBabel01182520543D

 27 28  0  0  0  0  0  0  0  0999 V2000
   -1.3882    2.4179    1.1632 O   0  0  0  0  0  0  0  0  0  0  0  0
    0.8173    0.0031    0.2473 N   0  0  0  0  0  0  0  0  0  0  0  0
   -0.6270   -1.8641    0.0275 N   0  0  0  0  0  0  0  0  0  0  0  0
   -1.1574    2.4960   -1.1170 N   0  0  0  0  0  0  0  0  0  0  0  0
    3.2085   -0.0003    0.4774 C   0  0  0  0  0  0  0  0  0  0  0  0
    3.8036    0.6363   -0.7442 C   0  0  0  0  0  0  0  0  0  0  0  0
    4.5012   -0.5163   -0.0835 C   0  0  0  0  0  0  0  0  0  0  0  0
    1.9726   -0.8280    0.3413 C   0  0  0  0  0  0  0  0  0  0  0  0
   -0.4907   -0.5205    0.0905 C   0  0  0  0  0  0  0  0  0  0  0  0
   -1.5483    0.3710    0.0090 C   0  0  0  0  0  0  0  0  0  0  0  0
   -2.8280   -0.1498   -0.1473 C   0  0  0  0  0  0  0  0  0  0  0  0
   -1.3694    1.8149    0.0770 C   0  0  0  0  0  0  0  0  0  0  0  0
   -1.8856   -2.3335   -0.1247 C   0  0  0  0  0  0  0  0  0  0  0  0
   -3.0085   -1.5267   -0.2163 C   0  0  0  0  0  0  0  0  0  0  0  0
    3.2485    0.5509    1.4092 H   0  0  0  0  0  0  0  0  0  0  0  0
    4.2423    1.6207   -0.6360 H   0  0  0  0  0  0  0  0  0  0  0  0
    3.3367    0.4580   -1.7052 H   0  0  0  0  0  0  0  0  0  0  0  0
    4.5042   -1.4674   -0.6015 H   0  0  0  0  0  0  0  0  0  0  0  0
    5.4093   -0.3061    0.4684 H   0  0  0  0  0  0  0  0  0  0  0  0
    1.8975   -1.4831    1.2173 H   0  0  0  0  0  0  0  0  0  0  0  0
    2.0415   -1.4739   -0.5431 H   0  0  0  0  0  0  0  0  0  0  0  0
    0.8807    0.9419    0.6276 H   0  0  0  0  0  0  0  0  0  0  0  0
   -3.6916    0.5063   -0.2168 H   0  0  0  0  0  0  0  0  0  0  0  0
   -1.9725   -3.4139   -0.1730 H   0  0  0  0  0  0  0  0  0  0  0  0
   -3.9967   -1.9550   -0.3379 H   0  0  0  0  0  0  0  0  0  0  0  0
   -1.1310    2.0189   -2.0125 H   0  0  0  0  0  0  0  0  0  0  0  0
   -1.0203    3.5012   -1.1271 H   0  0  0  0  0  0  0  0  0  0  0  0
  1 12  2  0  0  0  0
  2  8  1  0  0  0  0
  2  9  1  0  0  0  0
  2 22  1  0  0  0  0
  3  9  1  0  0  0  0
  3 13  2  0  0  0  0
  4 12  1  0  0  0  0
  4 26  1  0  0  0  0
  4 27  1  0  0  0  0
  5  6  1  0  0  0  0
  5  7  1  0  0  0  0
  5  8  1  0  0  0  0
  5 15  1  0  0  0  0
  6  7  1  0  0  0  0
  6 16  1  0  0  0  0
  6 17  1  0  0  0  0
  7 18  1  0  0  0  0
  7 19  1  0  0  0  0
  8 20  1  0  0  0  0
  8 21  1  0  0  0  0
  9 10  2  0  0  0  0
 10 11  1  0  0  0  0
 10 12  1  0  0  0  0
 11 14  2  0  0  0  0
 11 23  1  0  0  0  0
 13 14  1  0  0  0  0
 13 24  1  0  0  0  0
 14 25  1  0  0  0  0
M  END
>  <PUBCHEM_COMPOUND_CID>
28103819

>  <PUBCHEM_CONFORMER_RMSD>
0.6

>  <PUBCHEM_CONFORMER_DIVERSEORDER>
1
27
25
28
16
29
10
8
9
26
30
22
14
2
15
7
21
23
5
17
6
19
24
3
12
11
13
4
20
18

>  <PUBCHEM_MMFF94_PARTIAL_CHARGES>
25
1 -0.57
10 0.09
11 -0.15
12 0.54
13 0.16
14 -0.15
15 0.1
16 0.1
17 0.1
18 0.1
19 0.1
2 -0.87
22 0.4
23 0.15
24 0.15
25 0.15
26 0.37
27 0.37
3 -0.62
4 -0.8
5 -0.19
6 -0.2
7 -0.2
8 0.46
9 0.41

>  <PUBCHEM_EFFECTIVE_ROTOR_COUNT>
4.6

>  <PUBCHEM_PHARMACOPHORE_FEATURES>
6
1 1 acceptor
1 2 cation
1 2 donor
1 3 acceptor
1 4 donor
6 3 9 10 11 13 14 rings

>  <PUBCHEM_HEAVY_ATOM_COUNT>
14

>  <PUBCHEM_ATOM_DEF_STEREO_COUNT>
0

>  <PUBCHEM_ATOM_UDEF_STEREO_COUNT>
0

>  <PUBCHEM_BOND_DEF_STEREO_COUNT>
0

>  <PUBCHEM_BOND_UDEF_STEREO_COUNT>
0

>  <PUBCHEM_ISOTOPIC_ATOM_COUNT>
0

>  <PUBCHEM_COMPONENT_COUNT>
1

>  <PUBCHEM_CACTVS_TAUTO_COUNT>
7

>  <PUBCHEM_CONFORMER_ID>
01ACD48B00000001

>  <PUBCHEM_MMFF94_ENERGY>
51.2436

>  <PUBCHEM_FEATURE_SELFOVERLAP>
30.446

>  <PUBCHEM_SHAPE_FINGERPRINT>
11680986 33 17834669779606954827
12173636 292 18198903600143338384
13024252 1 17313103060000459107
14614273 12 18263360287704712397
15442244 35 18191863427844725642
15669948 3 18410284826737165586
17134986 127 17687743835519107861
1986462 14 18341899550412789182
20300324 65 18410580621514259516
20510252 161 18342175557300033234
20871998 184 18272934942207227551
20871999 31 18262787579865468399
21029758 11 18198614613864516751
21029758 27 18189058758270709175
21501502 16 18268427928154826402
21524375 3 17974286525751909121
2297311 6 18270976725299609862
2306618 200 18202570548841776378
23402539 116 18341604932282524887
23557571 272 18342748433086529398
23559900 14 18342450461715259120
23598291 2 17823972343338982226
2748010 2 18051958509808333843
3071541 250 17976826715740305743
7364860 26 17549541155526239731
81228 2 18410302418674939595

>  <PUBCHEM_SHAPE_MULTIPOLES>
267.3
6.54
2.46
0.82
8.41
0.97
-0.01
-1.41
-0.68
-2.36
-0.07
0.05
0.36
-0.32

>  <PUBCHEM_SHAPE_SELFOVERLAP>
555.939

>  <PUBCHEM_SHAPE_VOLUME>
152.1

>  <PUBCHEM_COORDINATE_TYPE>
2
5
10

$$$$
