28103503
 OpenBabel01182520543D

 40 40  0  0  0  0  0  0  0  0999 V2000
   -1.3693   -2.4066    0.6220 O   0  0  0  0  0  0  0  0  0  0  0  0
    2.6703   -0.1100    0.2536 N   0  0  0  0  0  0  0  0  0  0  0  0
   -0.4338    0.1700   -1.3996 N   0  0  0  0  0  0  0  0  0  0  0  0
   -1.4079    1.9979   -0.3030 N   0  0  0  0  0  0  0  0  0  0  0  0
   -2.9062   -2.2209   -1.0697 N   0  0  0  0  0  0  0  0  0  0  0  0
    2.3042   -0.9138   -0.9062 C   0  0  0  0  0  0  0  0  0  0  0  0
    1.8987   -0.0445   -2.1005 C   0  0  0  0  0  0  0  0  0  0  0  0
    3.8013    0.7646   -0.0615 C   0  0  0  0  0  0  0  0  0  0  0  0
    2.9951   -0.9684    1.3944 C   0  0  0  0  0  0  0  0  0  0  0  0
    0.7316    0.9043   -1.8296 C   0  0  0  0  0  0  0  0  0  0  0  0
    4.1513    1.6559    1.1182 C   0  0  0  0  0  0  0  0  0  0  0  0
    1.8342   -1.8856    1.7392 C   0  0  0  0  0  0  0  0  0  0  0  0
   -1.3622    0.6604   -0.4946 C   0  0  0  0  0  0  0  0  0  0  0  0
   -2.1825   -0.2452    0.1587 C   0  0  0  0  0  0  0  0  0  0  0  0
   -3.1094    0.2539    1.0670 C   0  0  0  0  0  0  0  0  0  0  0  0
   -2.1073   -1.6822   -0.0666 C   0  0  0  0  0  0  0  0  0  0  0  0
   -2.3214    2.4461    0.5872 C   0  0  0  0  0  0  0  0  0  0  0  0
   -3.1866    1.6240    1.2911 C   0  0  0  0  0  0  0  0  0  0  0  0
    3.1315   -1.5693   -1.2098 H   0  0  0  0  0  0  0  0  0  0  0  0
    1.4497   -1.5647   -0.6973 H   0  0  0  0  0  0  0  0  0  0  0  0
    2.7478    0.5129   -2.5100 H   0  0  0  0  0  0  0  0  0  0  0  0
    1.6007   -0.7274   -2.9088 H   0  0  0  0  0  0  0  0  0  0  0  0
    4.6864    0.1947   -0.3713 H   0  0  0  0  0  0  0  0  0  0  0  0
    3.5540    1.4533   -0.8743 H   0  0  0  0  0  0  0  0  0  0  0  0
    3.8958   -1.5682    1.2125 H   0  0  0  0  0  0  0  0  0  0  0  0
    3.1729   -0.3664    2.2914 H   0  0  0  0  0  0  0  0  0  0  0  0
    0.4892    1.4553   -2.7454 H   0  0  0  0  0  0  0  0  0  0  0  0
    1.0352    1.6462   -1.0819 H   0  0  0  0  0  0  0  0  0  0  0  0
   -0.6823   -0.6628   -1.9228 H   0  0  0  0  0  0  0  0  0  0  0  0
    3.2637    2.1430    1.5364 H   0  0  0  0  0  0  0  0  0  0  0  0
    4.6688    1.1128    1.9149 H   0  0  0  0  0  0  0  0  0  0  0  0
    4.8329    2.4487    0.7892 H   0  0  0  0  0  0  0  0  0  0  0  0
    0.8893   -1.3354    1.7990 H   0  0  0  0  0  0  0  0  0  0  0  0
    1.7267   -2.7161    1.0351 H   0  0  0  0  0  0  0  0  0  0  0  0
    2.0070   -2.3373    2.7229 H   0  0  0  0  0  0  0  0  0  0  0  0
   -3.7758   -0.4140    1.6065 H   0  0  0  0  0  0  0  0  0  0  0  0
   -2.3413    3.5220    0.7259 H   0  0  0  0  0  0  0  0  0  0  0  0
   -3.9012    2.0355    1.9947 H   0  0  0  0  0  0  0  0  0  0  0  0
   -3.5200   -1.6455   -1.6375 H   0  0  0  0  0  0  0  0  0  0  0  0
   -2.8978   -3.2164   -1.2652 H   0  0  0  0  0  0  0  0  0  0  0  0
  1 16  2  0  0  0  0
  2  6  1  0  0  0  0
  2  8  1  0  0  0  0
  2  9  1  0  0  0  0
  3 10  1  0  0  0  0
  3 13  1  0  0  0  0
  3 29  1  0  0  0  0
  4 13  1  0  0  0  0
  4 17  2  0  0  0  0
  5 16  1  0  0  0  0
  5 39  1  0  0  0  0
  5 40  1  0  0  0  0
  6  7  1  0  0  0  0
  6 19  1  0  0  0  0
  6 20  1  0  0  0  0
  7 10  1  0  0  0  0
  7 21  1  0  0  0  0
  7 22  1  0  0  0  0
  8 11  1  0  0  0  0
  8 23  1  0  0  0  0
  8 24  1  0  0  0  0
  9 12  1  0  0  0  0
  9 25  1  0  0  0  0
  9 26  1  0  0  0  0
 10 27  1  0  0  0  0
 10 28  1  0  0  0  0
 11 30  1  0  0  0  0
 11 31  1  0  0  0  0
 11 32  1  0  0  0  0
 12 33  1  0  0  0  0
 12 34  1  0  0  0  0
 12 35  1  0  0  0  0
 13 14  2  0  0  0  0
 14 15  1  0  0  0  0
 14 16  1  0  0  0  0
 15 18  2  0  0  0  0
 15 36  1  0  0  0  0
 17 18  1  0  0  0  0
 17 37  1  0  0  0  0
 18 38  1  0  0  0  0
M  END
>  <PUBCHEM_COMPOUND_CID>
28103503

>  <PUBCHEM_CONFORMER_RMSD>
0.8

>  <PUBCHEM_CONFORMER_DIVERSEORDER>
7
187
67
90
37
119
138
188
28
157
161
42
19
183
154
82
46
152
79
177
146
158
78
186
71
151
12
175
95
101
47
172
107
166
94
155
179
168
103
124
16
64
118
40
53
59
57
93
121
133
50
65
52
134
167
24
116
8
159
181
9
6
185
44
75
48
58
139
56
5
123
66
165
14
163
128
127
54
164
156
74
184
170
81
147
182
17
100
104
112
178
83
150
174
169
85
89
36
70
23
180
21
189
88
171
76
73
11
34
98
55
190
149
173
102
176
96
27
26
108
63
33
60
144
129
77
91
80
131
38
10
45
3
137
31
25
2
130
15
111
51
110
84
125
61
135
18
141
105
114
49
4
86
20
22
35
13
122
145
62
120
143
39
92
109
30
160
1
153
99
72
68
140
162
29
43
132
115
136
126
41
87
69
113
32
117
97
106
142
148

>  <PUBCHEM_MMFF94_PARTIAL_CHARGES>
21
1 -0.57
10 0.37
13 0.41
14 0.09
15 -0.15
16 0.54
17 0.16
18 -0.15
2 -0.81
29 0.4
3 -0.87
36 0.15
37 0.15
38 0.15
39 0.37
4 -0.62
40 0.37
5 -0.8
6 0.27
8 0.27
9 0.27

>  <PUBCHEM_EFFECTIVE_ROTOR_COUNT>
8

>  <PUBCHEM_PHARMACOPHORE_FEATURES>
7
1 1 acceptor
1 2 cation
1 3 cation
1 3 donor
1 4 acceptor
1 5 donor
6 4 13 14 15 17 18 rings

>  <PUBCHEM_HEAVY_ATOM_COUNT>
18

>  <PUBCHEM_ATOM_DEF_STEREO_COUNT>
0

>  <PUBCHEM_ATOM_UDEF_STEREO_COUNT>
0

>  <PUBCHEM_BOND_DEF_STEREO_COUNT>
0

>  <PUBCHEM_BOND_UDEF_STEREO_COUNT>
0

>  <PUBCHEM_ISOTOPIC_ATOM_COUNT>
0

>  <PUBCHEM_COMPONENT_COUNT>
1

>  <PUBCHEM_CACTVS_TAUTO_COUNT>
7

>  <PUBCHEM_CONFORMER_ID>
01ACD34F00000007

>  <PUBCHEM_MMFF94_ENERGY>
49.6708

>  <PUBCHEM_FEATURE_SELFOVERLAP>
35.521

>  <PUBCHEM_SHAPE_FINGERPRINT>
10366900 7 18130783512094907404
11265709 11 17912926373068582511
11578080 2 17896302761878361853
12553582 1 17240772778414776118
12633257 1 18340477855913014552
13032168 30 17898288557213403146
13083527 12 17413303921303517703
13764800 53 17561085795420764800
14081887 123 18339352089013072856
14178342 30 18261399965783214462
14341114 328 18337953497654657720
14787075 74 17688579885711191036
18981168 100 15482374443996834934
20442098 301 18187933837241597492
20645477 70 15936702548124152535
21475661 188 16481662082292681785
22445834 79 17894926104320593365
23419403 2 17765396084528043981
23493267 7 17988648450113879064
23557571 272 18129673022246061614
23559900 14 17987810596145989756
27216 239 17632572785884300936
4072396 5 18189918430741034769
7097593 13 18335417924850718056
81228 2 18341067288708616335

>  <PUBCHEM_SHAPE_MULTIPOLES>
344.64
6.83
2.52
1.84
3.24
0.34
0.4
-1.71
-2.55
-1.46
-0.64
0.96
0.14
-0.84

>  <PUBCHEM_SHAPE_SELFOVERLAP>
689.274

>  <PUBCHEM_SHAPE_VOLUME>
203.7

>  <PUBCHEM_COORDINATE_TYPE>
2
5
10

$$$$
