2826733
 OpenBabel01182520543D

 22 22  0  0  0  0  0  0  0  0999 V2000
    2.7179    1.3265   -0.3679 O   0  0  0  0  0  0  0  0  0  0  0  0
   -1.4257    1.3775    0.2293 N   0  0  0  0  0  0  0  0  0  0  0  0
    2.8109   -0.9121    0.2293 N   0  0  0  0  0  0  0  0  0  0  0  0
   -3.4691    0.1674    0.0378 N   0  0  0  0  0  0  0  0  0  0  0  0
   -4.1574   -1.0175    0.1016 N   0  0  0  0  0  0  0  0  0  0  0  0
    0.6749    0.2169   -0.0627 C   0  0  0  0  0  0  0  0  0  0  0  0
   -0.0060   -0.9744   -0.2873 C   0  0  0  0  0  0  0  0  0  0  0  0
   -2.0529    0.2007    0.0065 C   0  0  0  0  0  0  0  0  0  0  0  0
   -1.3961   -0.9912   -0.2537 C   0  0  0  0  0  0  0  0  0  0  0  0
   -0.0747    1.3548    0.1889 C   0  0  0  0  0  0  0  0  0  0  0  0
    2.1261    0.2671   -0.0903 C   0  0  0  0  0  0  0  0  0  0  0  0
    4.2519   -1.0156    0.2685 C   0  0  0  0  0  0  0  0  0  0  0  0
    0.5089   -1.9019   -0.5195 H   0  0  0  0  0  0  0  0  0  0  0  0
   -1.9047   -1.9295   -0.4471 H   0  0  0  0  0  0  0  0  0  0  0  0
    0.3930    2.3166    0.3766 H   0  0  0  0  0  0  0  0  0  0  0  0
    2.2938   -1.7317    0.5294 H   0  0  0  0  0  0  0  0  0  0  0  0
   -3.9473    1.0316    0.2622 H   0  0  0  0  0  0  0  0  0  0  0  0
    4.5335   -2.0378    0.0060 H   0  0  0  0  0  0  0  0  0  0  0  0
    4.5845   -0.7907    1.2848 H   0  0  0  0  0  0  0  0  0  0  0  0
    4.7063   -0.3095   -0.4310 H   0  0  0  0  0  0  0  0  0  0  0  0
   -5.0852   -0.8769   -0.2958 H   0  0  0  0  0  0  0  0  0  0  0  0
   -4.3050   -1.2576    1.0811 H   0  0  0  0  0  0  0  0  0  0  0  0
  1 11  2  0  0  0  0
  2  8  2  0  0  0  0
  2 10  1  0  0  0  0
  3 11  1  0  0  0  0
  3 12  1  0  0  0  0
  3 16  1  0  0  0  0
  4  5  1  0  0  0  0
  4  8  1  0  0  0  0
  4 17  1  0  0  0  0
  5 21  1  0  0  0  0
  5 22  1  0  0  0  0
  6  7  1  0  0  0  0
  6 10  2  0  0  0  0
  6 11  1  0  0  0  0
  7  9  2  0  0  0  0
  7 13  1  0  0  0  0
  8  9  1  0  0  0  0
  9 14  1  0  0  0  0
 10 15  1  0  0  0  0
 12 18  1  0  0  0  0
 12 19  1  0  0  0  0
 12 20  1  0  0  0  0
M  END
>  <PUBCHEM_COMPOUND_CID>
2826733

>  <PUBCHEM_CONFORMER_RMSD>
0.6

>  <PUBCHEM_CONFORMER_DIVERSEORDER>
2
6
4
5
3
1

>  <PUBCHEM_MMFF94_PARTIAL_CHARGES>
19
1 -0.57
10 0.16
11 0.54
12 0.3
13 0.15
14 0.15
15 0.15
16 0.37
17 0.4
2 -0.62
21 0.36
22 0.36
3 -0.73
4 -0.51
5 -0.71
6 0.09
7 -0.15
8 0.41
9 -0.15

>  <PUBCHEM_EFFECTIVE_ROTOR_COUNT>
3

>  <PUBCHEM_PHARMACOPHORE_FEATURES>
6
1 1 acceptor
1 3 donor
1 4 donor
1 5 donor
3 2 4 8 cation
6 2 6 7 8 9 10 rings

>  <PUBCHEM_HEAVY_ATOM_COUNT>
12

>  <PUBCHEM_ATOM_DEF_STEREO_COUNT>
0

>  <PUBCHEM_ATOM_UDEF_STEREO_COUNT>
0

>  <PUBCHEM_BOND_DEF_STEREO_COUNT>
0

>  <PUBCHEM_BOND_UDEF_STEREO_COUNT>
0

>  <PUBCHEM_ISOTOPIC_ATOM_COUNT>
0

>  <PUBCHEM_COMPONENT_COUNT>
1

>  <PUBCHEM_CACTVS_TAUTO_COUNT>
5

>  <PUBCHEM_CONFORMER_ID>
002B21ED00000002

>  <PUBCHEM_MMFF94_ENERGY>
33.8249

>  <PUBCHEM_FEATURE_SELFOVERLAP>
31.991

>  <PUBCHEM_SHAPE_FINGERPRINT>
10130415 120 18411980264987149240
10219947 1 18413111684137976615
11062470 55 10952048957156204171
11543360 7 16009041625913653647
11769659 78 18334571352041227683
12032990 46 18410859862712499655
13690532 89 18335700512107881290
13760787 5 18410012165312466621
14325111 11 18410576188654511197
16945 1 17561366183891997461
177051 138 18411136922489171338
18186145 218 17385435536055448109
19026448 4 16950564415236146797
19422 9 18409173220417829769
20645476 183 17970928849306130574
21501925 9 18410848854901009842
23402539 116 18059845147963955773
23402655 69 18198890420017673397
23463225 33 18411138013315886566
23552423 10 18261955245114851790
369184 2 18410572894314290420
7364860 26 18342738568106020656

>  <PUBCHEM_SHAPE_MULTIPOLES>
221.16
6.55
1.42
0.62
0.66
0.22
-0.01
-2.28
0.56
0.14
0.01
0.07
-0.01
-0.26

>  <PUBCHEM_SHAPE_SELFOVERLAP>
454.692

>  <PUBCHEM_SHAPE_VOLUME>
126.3

>  <PUBCHEM_COORDINATE_TYPE>
2
5
10

$$$$
