28375955
 OpenBabel01182520543D

 40 41  0  0  1  0  0  0  0  0999 V2000
    1.5446   -0.9528    2.7347 O   0  0  0  0  0  0  0  0  0  0  0  0
    0.0797    0.1609   -0.1388 N   0  0  0  0  0  0  0  0  0  0  0  0
    1.1559   -1.1891   -1.7436 N   0  0  0  0  0  0  0  0  0  0  0  0
    1.4070    4.8528   -0.6284 N   0  0  0  0  0  0  0  0  0  0  0  0
   -4.5346    0.2455    0.6497 N   0  0  0  0  0  0  0  0  0  0  0  0
    2.7096    0.8768    1.9905 N   0  0  0  0  0  0  0  0  0  0  0  0
   -0.1846    1.3887   -0.8504 C   0  0  0  0  0  0  0  0  0  0  0  0
    0.7391    2.5074   -0.3733 C   0  0  0  0  0  0  0  0  0  0  0  0
   -0.7921   -0.2016    0.9800 C   0  0  0  0  0  0  0  0  0  0  0  0
    1.1483   -0.6744   -0.4936 C   0  0  0  0  0  0  0  0  0  0  0  0
    0.4890    3.8257   -1.1083 C   0  0  0  0  0  0  0  0  0  0  0  0
   -2.2066   -0.3906    0.5063 C   0  0  0  0  0  0  0  0  0  0  0  0
    2.1290   -0.9223    0.4533 C   0  0  0  0  0  0  0  0  0  0  0  0
   -2.5161   -1.3316   -0.4693 C   0  0  0  0  0  0  0  0  0  0  0  0
    3.1857   -1.7517    0.0941 C   0  0  0  0  0  0  0  0  0  0  0  0
   -3.2427    0.3661    1.0294 C   0  0  0  0  0  0  0  0  0  0  0  0
    2.0924   -0.3541    1.7938 C   0  0  0  0  0  0  0  0  0  0  0  0
    2.1986   -1.9908   -2.0565 C   0  0  0  0  0  0  0  0  0  0  0  0
    3.2285   -2.3002   -1.1829 C   0  0  0  0  0  0  0  0  0  0  0  0
   -3.8338   -1.4851   -0.8861 C   0  0  0  0  0  0  0  0  0  0  0  0
   -4.7971   -0.6795   -0.3007 C   0  0  0  0  0  0  0  0  0  0  0  0
   -0.0572    1.2377   -1.9300 H   0  0  0  0  0  0  0  0  0  0  0  0
   -1.2219    1.7170   -0.7197 H   0  0  0  0  0  0  0  0  0  0  0  0
    1.7842    2.2085   -0.5238 H   0  0  0  0  0  0  0  0  0  0  0  0
    0.6045    2.6555    0.7060 H   0  0  0  0  0  0  0  0  0  0  0  0
   -0.7377    0.5737    1.7536 H   0  0  0  0  0  0  0  0  0  0  0  0
   -0.5034   -1.1513    1.4449 H   0  0  0  0  0  0  0  0  0  0  0  0
   -0.5432    4.1566   -0.9501 H   0  0  0  0  0  0  0  0  0  0  0  0
    0.6357    3.6892   -2.1850 H   0  0  0  0  0  0  0  0  0  0  0  0
   -1.7446   -1.9577   -0.9082 H   0  0  0  0  0  0  0  0  0  0  0  0
    3.9805   -1.9784    0.7998 H   0  0  0  0  0  0  0  0  0  0  0  0
   -3.0657    1.1173    1.7930 H   0  0  0  0  0  0  0  0  0  0  0  0
    1.2594    5.0064    0.3683 H   0  0  0  0  0  0  0  0  0  0  0  0
    1.1945    5.7370   -1.0883 H   0  0  0  0  0  0  0  0  0  0  0  0
    2.1852   -2.3932   -3.0641 H   0  0  0  0  0  0  0  0  0  0  0  0
    4.0423   -2.9495   -1.4848 H   0  0  0  0  0  0  0  0  0  0  0  0
   -4.0987   -2.2135   -1.6439 H   0  0  0  0  0  0  0  0  0  0  0  0
   -5.8396   -0.7605   -0.5905 H   0  0  0  0  0  0  0  0  0  0  0  0
    3.1762    1.3732    1.2383 H   0  0  0  0  0  0  0  0  0  0  0  0
    2.7166    1.3165    2.9047 H   0  0  0  0  0  0  0  0  0  0  0  0
  1 17  2  0  0  0  0
  2  7  1  0  0  0  0
  2  9  1  0  0  0  0
  2 10  1  0  0  0  0
  3 10  1  0  0  0  0
  3 18  2  0  0  0  0
  4 11  1  0  0  0  0
  4 33  1  0  0  0  0
  4 34  1  0  0  0  0
  5 16  1  0  0  0  0
  5 21  2  0  0  0  0
  6 17  1  0  0  0  0
  6 39  1  0  0  0  0
  6 40  1  0  0  0  0
  7  8  1  0  0  0  0
  7 22  1  0  0  0  0
  7 23  1  0  0  0  0
  8 11  1  0  0  0  0
  8 24  1  0  0  0  0
  8 25  1  0  0  0  0
  9 12  1  0  0  0  0
  9 26  1  0  0  0  0
  9 27  1  0  0  0  0
 10 13  2  0  0  0  0
 11 28  1  0  0  0  0
 11 29  1  0  0  0  0
 12 14  1  0  0  0  0
 12 16  2  0  0  0  0
 13 15  1  0  0  0  0
 13 17  1  0  0  0  0
 14 20  2  0  0  0  0
 14 30  1  0  0  0  0
 15 19  2  0  0  0  0
 15 31  1  0  0  0  0
 16 32  1  0  0  0  0
 18 19  1  0  0  0  0
 18 35  1  0  0  0  0
 19 36  1  0  0  0  0
 20 21  1  0  0  0  0
 20 37  1  0  0  0  0
 21 38  1  0  0  0  0
M  END
>  <PUBCHEM_COMPOUND_CID>
28375955

>  <PUBCHEM_CONFORMER_RMSD>
0.8

>  <PUBCHEM_CONFORMER_DIVERSEORDER>
4
97
225
191
68
268
168
285
220
82
260
142
29
235
207
232
153
209
95
84
300
243
91
147
45
196
236
263
279
152
85
188
65
54
273
146
282
58
86
289
231
167
154
241
298
5
294
249
78
247
171
149
176
240
280
37
144
230
118
108
205
43
173
124
132
56
234
80
197
214
141
99
104
102
295
59
180
53
163
281
52
22
109
259
155
67
75
269
200
242
199
113
123
87
169
179
228
47
92
127
261
177
130
36
10
133
126
161
206
178
250
73
134
12
129
182
63
238
296
114
175
76
185
239
293
256
17
184
96
62
88
253
288
297
217
111
150
122
125
248
224
70
226
66
116
275
34
18
48
151
100
138
79
16
21
265
233
157
258
38
32
290
159
299
274
74
107
131
139
267
292
210
143
51
166
215
162
174
262
13
41
39
140
89
25
183
69
110
193
264
283
28
50
14
186
112
202
254
60
24
145
192
94
287
3
137
218
148
49
156
90
221
170
212
187
213
203
8
106
23
222
245
160
252
255
195
278
165
115
121
219
6
64
208
101
136
266
257
244
77
98
120
81
103
291
44
164
271
105
7
181
201
189
276
237
11
42
216
158
46
30
19
198
27
286
83
135
128
9
204
61
20
26
31
72
1
277
227
2
246
172
33
223
40
229
301
117
15
93
270
55
71
211
194
119
272
57
251
284
190
35

>  <PUBCHEM_MMFF94_PARTIAL_CHARGES>
31
1 -0.57
10 0.41
11 0.27
12 -0.14
13 0.09
14 -0.15
15 -0.15
16 0.16
17 0.54
18 0.16
19 -0.15
2 -0.84
20 -0.15
21 0.16
3 -0.62
30 0.15
31 0.15
32 0.15
33 0.36
34 0.36
35 0.15
36 0.15
37 0.15
38 0.15
39 0.37
4 -0.99
40 0.37
5 -0.62
6 -0.8
7 0.37
9 0.51

>  <PUBCHEM_EFFECTIVE_ROTOR_COUNT>
7

>  <PUBCHEM_PHARMACOPHORE_FEATURES>
9
1 1 acceptor
1 2 cation
1 3 acceptor
1 4 cation
1 4 donor
1 5 acceptor
1 6 donor
6 3 10 13 15 18 19 rings
6 5 12 14 16 20 21 rings

>  <PUBCHEM_HEAVY_ATOM_COUNT>
21

>  <PUBCHEM_ATOM_DEF_STEREO_COUNT>
0

>  <PUBCHEM_ATOM_UDEF_STEREO_COUNT>
0

>  <PUBCHEM_BOND_DEF_STEREO_COUNT>
0

>  <PUBCHEM_BOND_UDEF_STEREO_COUNT>
0

>  <PUBCHEM_ISOTOPIC_ATOM_COUNT>
0

>  <PUBCHEM_COMPONENT_COUNT>
1

>  <PUBCHEM_CACTVS_TAUTO_COUNT>
2

>  <PUBCHEM_CONFORMER_ID>
01B0FB9300000004

>  <PUBCHEM_MMFF94_ENERGY>
73.9955

>  <PUBCHEM_FEATURE_SELFOVERLAP>
45.671

>  <PUBCHEM_SHAPE_FINGERPRINT>
12553582 1 18188212005336486203
12707595 3 18113909260030891771
12788726 201 17826523162374001401
13149001 5 17824005491184351227
13681431 1 18409738390743080269
14004458 79 18047763593717595636
14817 1 12147061944791922736
14863182 85 17558825328563926543
15238133 3 17387406844994191797
15501101 241 17775003453542932634
16752209 62 17677893427231868623
17980427 23 18125135372297284329
1813 80 18338524049235507767
19078846 21 17968657116960511701
20369508 70 17895464908569289251
20600515 1 18336536166419227491
21033648 29 17844522198518936401
21524375 3 17470167428276464757
23419403 2 17414980375677233536
23557571 272 18264774264285269998
23559900 14 17561076978079954587
3286 77 17417807292802378978
394222 165 17830725818049191969
6442390 28 17043458535941403360
7364860 26 18267875049873184693
81228 2 18121512258113898809
9709674 26 17489586762402532127
9841814 1 18186516622751694425
9971528 1 18341609304954519965
9981440 41 17762340618923781841
9999458 23 17202474666695119784

>  <PUBCHEM_SHAPE_MULTIPOLES>
401.4
6.84
3.75
1.92
8.4
7.02
-0.78
-4.47
-0.24
-2.99
2.34
-1.63
-0.47
0.16

>  <PUBCHEM_SHAPE_SELFOVERLAP>
842.827

>  <PUBCHEM_SHAPE_VOLUME>
224.3

>  <PUBCHEM_COORDINATE_TYPE>
2
5
10

$$$$
