28387549
 OpenBabel01182520543D

 31 31  0  0  1  0  0  0  0  0999 V2000
    1.3465   -2.6386   -0.5279 O   0  0  0  0  0  0  0  0  0  0  0  0
   -0.3674    0.2172   -1.2638 N   0  0  0  0  0  0  0  0  0  0  0  0
    1.1342    1.8569   -0.4808 N   0  0  0  0  0  0  0  0  0  0  0  0
   -4.4346    0.1182    1.4681 N   0  0  0  0  0  0  0  0  0  0  0  0
   -0.0740   -2.1807    1.2130 N   0  0  0  0  0  0  0  0  0  0  0  0
   -1.6639    0.8199   -1.0643 C   0  0  0  0  0  0  0  0  0  0  0  0
   -2.4021    0.1578    0.0972 C   0  0  0  0  0  0  0  0  0  0  0  0
    0.7317    0.5664   -0.4666 C   0  0  0  0  0  0  0  0  0  0  0  0
   -3.7816    0.7732    0.3402 C   0  0  0  0  0  0  0  0  0  0  0  0
   -0.2158   -0.7840   -2.3210 C   0  0  0  0  0  0  0  0  0  0  0  0
    1.3396   -0.4274    0.2834 C   0  0  0  0  0  0  0  0  0  0  0  0
    2.4307   -0.0742    1.0696 C   0  0  0  0  0  0  0  0  0  0  0  0
    0.8846   -1.8110    0.2755 C   0  0  0  0  0  0  0  0  0  0  0  0
    2.8743    1.2436    1.0815 C   0  0  0  0  0  0  0  0  0  0  0  0
    2.1978    2.1627    0.2957 C   0  0  0  0  0  0  0  0  0  0  0  0
   -1.5622    1.8963   -0.8780 H   0  0  0  0  0  0  0  0  0  0  0  0
   -2.2702    0.7288   -1.9741 H   0  0  0  0  0  0  0  0  0  0  0  0
   -1.8041    0.2523    1.0125 H   0  0  0  0  0  0  0  0  0  0  0  0
   -2.5068   -0.9165   -0.1027 H   0  0  0  0  0  0  0  0  0  0  0  0
   -4.4053    0.6672   -0.5541 H   0  0  0  0  0  0  0  0  0  0  0  0
   -3.6833    1.8425    0.5552 H   0  0  0  0  0  0  0  0  0  0  0  0
   -0.6993   -0.4336   -3.2398 H   0  0  0  0  0  0  0  0  0  0  0  0
   -0.6938   -1.7254   -2.0332 H   0  0  0  0  0  0  0  0  0  0  0  0
    0.8351   -0.9669   -2.5705 H   0  0  0  0  0  0  0  0  0  0  0  0
    2.9435   -0.8159    1.6762 H   0  0  0  0  0  0  0  0  0  0  0  0
   -4.5552   -0.8736    1.2663 H   0  0  0  0  0  0  0  0  0  0  0  0
   -5.3715    0.5018    1.5851 H   0  0  0  0  0  0  0  0  0  0  0  0
    3.7228    1.5418    1.6865 H   0  0  0  0  0  0  0  0  0  0  0  0
    2.5042    3.2032    0.2697 H   0  0  0  0  0  0  0  0  0  0  0  0
   -0.4511   -1.5232    1.8879 H   0  0  0  0  0  0  0  0  0  0  0  0
   -0.4237   -3.1322    1.2539 H   0  0  0  0  0  0  0  0  0  0  0  0
  1 13  2  0  0  0  0
  2  6  1  0  0  0  0
  2  8  1  0  0  0  0
  2 10  1  0  0  0  0
  3  8  1  0  0  0  0
  3 15  2  0  0  0  0
  4  9  1  0  0  0  0
  4 26  1  0  0  0  0
  4 27  1  0  0  0  0
  5 13  1  0  0  0  0
  5 30  1  0  0  0  0
  5 31  1  0  0  0  0
  6  7  1  0  0  0  0
  6 16  1  0  0  0  0
  6 17  1  0  0  0  0
  7  9  1  0  0  0  0
  7 18  1  0  0  0  0
  7 19  1  0  0  0  0
  8 11  2  0  0  0  0
  9 20  1  0  0  0  0
  9 21  1  0  0  0  0
 10 22  1  0  0  0  0
 10 23  1  0  0  0  0
 10 24  1  0  0  0  0
 11 12  1  0  0  0  0
 11 13  1  0  0  0  0
 12 14  2  0  0  0  0
 12 25  1  0  0  0  0
 14 15  1  0  0  0  0
 14 28  1  0  0  0  0
 15 29  1  0  0  0  0
M  END
>  <PUBCHEM_COMPOUND_CID>
28387549

>  <PUBCHEM_CONFORMER_RMSD>
0.6

>  <PUBCHEM_CONFORMER_DIVERSEORDER>
21
82
89
43
113
85
73
58
74
104
48
92
110
39
106
111
33
62
87
75
32
55
84
96
93
57
61
112
36
100
83
88
41
51
3
25
34
105
114
53
67
98
107
56
80
81
17
103
59
31
44
68
76
65
108
6
23
52
71
63
109
50
28
7
78
69
12
38
40
10
26
29
91
19
94
77
79
54
60
20
45
101
18
15
11
24
49
35
47
14
37
72
97
22
4
64
86
42
95
30
102
99
16
9
70
27
2
8
13
90
46
5
66
1

>  <PUBCHEM_MMFF94_PARTIAL_CHARGES>
21
1 -0.57
10 0.37
11 0.09
12 -0.15
13 0.54
14 -0.15
15 0.16
2 -0.84
25 0.15
26 0.36
27 0.36
28 0.15
29 0.15
3 -0.62
30 0.37
31 0.37
4 -0.99
5 -0.8
6 0.37
8 0.41
9 0.27

>  <PUBCHEM_EFFECTIVE_ROTOR_COUNT>
5

>  <PUBCHEM_PHARMACOPHORE_FEATURES>
7
1 1 acceptor
1 2 cation
1 3 acceptor
1 4 cation
1 4 donor
1 5 donor
6 3 8 11 12 14 15 rings

>  <PUBCHEM_HEAVY_ATOM_COUNT>
15

>  <PUBCHEM_ATOM_DEF_STEREO_COUNT>
0

>  <PUBCHEM_ATOM_UDEF_STEREO_COUNT>
0

>  <PUBCHEM_BOND_DEF_STEREO_COUNT>
0

>  <PUBCHEM_BOND_UDEF_STEREO_COUNT>
0

>  <PUBCHEM_ISOTOPIC_ATOM_COUNT>
0

>  <PUBCHEM_COMPONENT_COUNT>
1

>  <PUBCHEM_CACTVS_TAUTO_COUNT>
2

>  <PUBCHEM_CONFORMER_ID>
01B128DD00000015

>  <PUBCHEM_MMFF94_ENERGY>
55.4484

>  <PUBCHEM_FEATURE_SELFOVERLAP>
35.521

>  <PUBCHEM_SHAPE_FINGERPRINT>
10498660 4 15267349479467052433
11067466 332 17749679497294304874
11471102 22 18114730577688863504
12202030 40 16952242106539358027
12491281 212 17559378361558855416
14617773 55 17836338807771050766
14817 1 17471878250993775222
15775835 57 17774715454500389145
15906896 17 17769932707784361358
16945 1 18270944757557241380
17357990 137 17274814744752785377
19049666 15 17609196975810488925
20539784 86 18410858720293319081
21041028 32 18056194666301811712
21524375 3 17988357199543988077
21731228 192 18267297810357627000
23419403 2 16307180732530869484
251288 83 18041284361042632393
2748010 2 17477171979059842716
276578 36 18131914874910117104
298252 57 17059778943540485932
430814 3 18059282253465307501
568465 68 18115289116679229952
576247 118 17553206501891406222
81228 2 17469302091244857898

>  <PUBCHEM_SHAPE_MULTIPOLES>
282.9
5.12
2.27
1.58
6.11
0.96
-0.56
-2.47
3.03
-1.62
0.12
0.59
0.37
0.07

>  <PUBCHEM_SHAPE_SELFOVERLAP>
574.177

>  <PUBCHEM_SHAPE_VOLUME>
164.8

>  <PUBCHEM_COORDINATE_TYPE>
2
5
10

$$$$
