28388185
 OpenBabel01182520543D

 30 30  0  0  1  0  0  0  0  0999 V2000
    4.9065    0.6044   -0.3215 S   0  0  0  0  0  0  0  0  0  0  0  0
   -1.8057    2.6272    0.3384 O   0  0  0  0  0  0  0  0  0  0  0  0
    0.1594   -0.0034    1.1883 N   0  0  0  0  0  0  0  0  0  0  0  0
   -1.2470   -1.8213    0.6630 N   0  0  0  0  0  0  0  0  0  0  0  0
    3.5739   -1.6406   -0.8627 N   0  0  0  0  0  0  0  0  0  0  0  0
   -0.4855    2.1147   -1.4652 N   0  0  0  0  0  0  0  0  0  0  0  0
    1.4830   -0.5311    0.9623 C   0  0  0  0  0  0  0  0  0  0  0  0
    2.1437    0.2133   -0.1942 C   0  0  0  0  0  0  0  0  0  0  0  0
   -0.9569   -0.5101    0.5071 C   0  0  0  0  0  0  0  0  0  0  0  0
   -0.0070    1.0802    2.1590 C   0  0  0  0  0  0  0  0  0  0  0  0
   -1.6920    0.3583   -0.2837 C   0  0  0  0  0  0  0  0  0  0  0  0
    3.5290   -0.3300   -0.4675 C   0  0  0  0  0  0  0  0  0  0  0  0
   -2.7958   -0.1517   -0.9580 C   0  0  0  0  0  0  0  0  0  0  0  0
   -1.3523    1.7666   -0.4346 C   0  0  0  0  0  0  0  0  0  0  0  0
   -3.1262   -1.4955   -0.8228 C   0  0  0  0  0  0  0  0  0  0  0  0
   -2.3270   -2.2811   -0.0080 C   0  0  0  0  0  0  0  0  0  0  0  0
    2.0982   -0.4220    1.8647 H   0  0  0  0  0  0  0  0  0  0  0  0
    1.4388   -1.6095    0.7687 H   0  0  0  0  0  0  0  0  0  0  0  0
    1.5533    0.0725   -1.1081 H   0  0  0  0  0  0  0  0  0  0  0  0
    2.1777    1.2901    0.0084 H   0  0  0  0  0  0  0  0  0  0  0  0
    0.5674    0.8608    3.0660 H   0  0  0  0  0  0  0  0  0  0  0  0
   -1.0504    1.1997    2.4710 H   0  0  0  0  0  0  0  0  0  0  0  0
    0.3657    2.0258    1.7535 H   0  0  0  0  0  0  0  0  0  0  0  0
   -3.4056    0.4873   -1.5913 H   0  0  0  0  0  0  0  0  0  0  0  0
   -3.9821   -1.9149   -1.3390 H   0  0  0  0  0  0  0  0  0  0  0  0
   -2.5419   -3.3356    0.1307 H   0  0  0  0  0  0  0  0  0  0  0  0
    2.7386   -2.2046   -0.9797 H   0  0  0  0  0  0  0  0  0  0  0  0
    4.4581   -2.0923   -1.0714 H   0  0  0  0  0  0  0  0  0  0  0  0
   -0.1080    1.4267   -2.1087 H   0  0  0  0  0  0  0  0  0  0  0  0
   -0.2080    3.0798   -1.6096 H   0  0  0  0  0  0  0  0  0  0  0  0
  1 12  2  0  0  0  0
  2 14  2  0  0  0  0
  3  7  1  0  0  0  0
  3  9  1  0  0  0  0
  3 10  1  0  0  0  0
  4  9  1  0  0  0  0
  4 16  2  0  0  0  0
  5 12  1  0  0  0  0
  5 27  1  0  0  0  0
  5 28  1  0  0  0  0
  6 14  1  0  0  0  0
  6 29  1  0  0  0  0
  6 30  1  0  0  0  0
  7  8  1  0  0  0  0
  7 17  1  0  0  0  0
  7 18  1  0  0  0  0
  8 12  1  0  0  0  0
  8 19  1  0  0  0  0
  8 20  1  0  0  0  0
  9 11  2  0  0  0  0
 10 21  1  0  0  0  0
 10 22  1  0  0  0  0
 10 23  1  0  0  0  0
 11 13  1  0  0  0  0
 11 14  1  0  0  0  0
 13 15  2  0  0  0  0
 13 24  1  0  0  0  0
 15 16  1  0  0  0  0
 15 25  1  0  0  0  0
 16 26  1  0  0  0  0
M  END
>  <PUBCHEM_COMPOUND_CID>
28388185

>  <PUBCHEM_CONFORMER_RMSD>
0.6

>  <PUBCHEM_CONFORMER_DIVERSEORDER>
19
45
171
114
62
110
43
67
153
175
133
47
105
55
156
32
37
168
116
90
139
148
87
106
69
84
78
40
80
102
122
134
51
68
64
86
125
142
15
163
35
104
141
145
82
115
112
109
155
49
138
143
160
42
162
27
95
88
97
74
128
22
165
131
174
73
65
13
135
121
79
11
57
159
12
161
60
91
167
129
21
152
33
151
66
34
147
48
150
157
89
164
123
72
17
154
170
76
81
56
18
7
118
132
30
146
149
130
50
26
58
158
120
83
71
173
172
94
107
127
137
28
41
126
70
39
2
100
46
140
59
29
23
44
52
8
77
24
31
113
85
1
96
99
20
3
4
169
36
93
38
75
5
9
16
136
14
92
61
119
103
25
144
117
6
53
98
111
63
124
101
108
166
10
54

>  <PUBCHEM_MMFF94_PARTIAL_CHARGES>
23
1 -0.38
10 0.37
11 0.09
12 0.38
13 -0.15
14 0.54
15 -0.15
16 0.16
2 -0.57
24 0.15
25 0.15
26 0.15
27 0.37
28 0.37
29 0.37
3 -0.84
30 0.37
4 -0.62
5 -0.8
6 -0.8
7 0.37
8 0.06
9 0.41

>  <PUBCHEM_EFFECTIVE_ROTOR_COUNT>
5

>  <PUBCHEM_PHARMACOPHORE_FEATURES>
6
1 1 acceptor
1 2 acceptor
1 3 cation
1 4 acceptor
1 6 donor
6 4 9 11 13 15 16 rings

>  <PUBCHEM_HEAVY_ATOM_COUNT>
16

>  <PUBCHEM_ATOM_DEF_STEREO_COUNT>
0

>  <PUBCHEM_ATOM_UDEF_STEREO_COUNT>
0

>  <PUBCHEM_BOND_DEF_STEREO_COUNT>
0

>  <PUBCHEM_BOND_UDEF_STEREO_COUNT>
0

>  <PUBCHEM_ISOTOPIC_ATOM_COUNT>
0

>  <PUBCHEM_COMPONENT_COUNT>
1

>  <PUBCHEM_CACTVS_TAUTO_COUNT>
4

>  <PUBCHEM_CONFORMER_ID>
01B12B5900000013

>  <PUBCHEM_MMFF94_ENERGY>
66.9314

>  <PUBCHEM_FEATURE_SELFOVERLAP>
30.447

>  <PUBCHEM_SHAPE_FINGERPRINT>
10465860 71 18116420617550357175
12173636 292 18196086642768368620
13024252 1 15430047564549539425
14817 1 13314129465201258993
15502708 8 18411417280663537297
16945 1 18340472396941048323
17134986 127 17541087671829332989
200 152 17989209269963974942
20300324 65 18334295396577456028
20361792 2 16128368285812830848
20711985 344 18411691072107286019
20871999 31 18339068333514470141
21061003 4 16845293881763184866
21524375 3 17391350710844388500
22169311 14 8502655905081127030
22802520 49 18412539946312300147
228727 97 17676196983542189587
23402539 116 18188201100409084438
23557571 272 18336260253704674490
23559900 14 18341603803439082506
2748010 2 18049697888443117491
353137 74 18040708156382389395
4028521 119 17749383750441956980
5262128 65 18188786044831915764
7364860 26 17618779601993175497
81228 2 18335698355891802833
84936 31 17341237534908930720

>  <PUBCHEM_SHAPE_MULTIPOLES>
307.33
6.62
2.32
1.38
8.88
0.58
0.51
-2.11
-2.51
-1.7
-0.25
-0.08
0.43
0.22

>  <PUBCHEM_SHAPE_SELFOVERLAP>
619.398

>  <PUBCHEM_SHAPE_VOLUME>
183

>  <PUBCHEM_COORDINATE_TYPE>
2
5
10

$$$$
