28534862
 OpenBabel01182520543D

 32 32  0  0  0  0  0  0  0  0999 V2000
    1.2740   -2.5253   -1.1447 O   0  0  0  0  0  0  0  0  0  0  0  0
   -0.4644    0.3167   -0.4359 N   0  0  0  0  0  0  0  0  0  0  0  0
    1.2739    1.8526   -0.1003 N   0  0  0  0  0  0  0  0  0  0  0  0
    0.8102   -2.5032    1.1010 N   0  0  0  0  0  0  0  0  0  0  0  0
   -3.3796   -0.1431    0.2122 C   0  0  0  0  0  0  0  0  0  0  0  0
   -2.8237    0.7534   -0.9128 C   0  0  0  0  0  0  0  0  0  0  0  0
   -1.4449    1.3545   -0.6425 C   0  0  0  0  0  0  0  0  0  0  0  0
   -3.5067    0.6691    1.5041 C   0  0  0  0  0  0  0  0  0  0  0  0
   -4.7335   -0.7575   -0.1456 C   0  0  0  0  0  0  0  0  0  0  0  0
    0.8733    0.5632   -0.1679 C   0  0  0  0  0  0  0  0  0  0  0  0
    1.7166   -0.5215    0.0113 C   0  0  0  0  0  0  0  0  0  0  0  0
    3.0574   -0.2665    0.2772 C   0  0  0  0  0  0  0  0  0  0  0  0
    1.2557   -1.9006   -0.0707 C   0  0  0  0  0  0  0  0  0  0  0  0
    3.5075    1.0468    0.3546 C   0  0  0  0  0  0  0  0  0  0  0  0
    2.5841    2.0614    0.1599 C   0  0  0  0  0  0  0  0  0  0  0  0
   -2.6843   -0.9715    0.3944 H   0  0  0  0  0  0  0  0  0  0  0  0
   -3.5286    1.5711   -1.1105 H   0  0  0  0  0  0  0  0  0  0  0  0
   -2.7747    0.1602   -1.8357 H   0  0  0  0  0  0  0  0  0  0  0  0
   -1.4813    2.0297    0.2191 H   0  0  0  0  0  0  0  0  0  0  0  0
   -1.1578    1.9601   -1.5109 H   0  0  0  0  0  0  0  0  0  0  0  0
   -4.1134    1.5685    1.3536 H   0  0  0  0  0  0  0  0  0  0  0  0
   -3.9834    0.0718    2.2895 H   0  0  0  0  0  0  0  0  0  0  0  0
   -2.5284    0.9722    1.8887 H   0  0  0  0  0  0  0  0  0  0  0  0
   -5.4875    0.0179   -0.3174 H   0  0  0  0  0  0  0  0  0  0  0  0
   -4.6542   -1.3601   -1.0564 H   0  0  0  0  0  0  0  0  0  0  0  0
   -5.0924   -1.4096    0.6576 H   0  0  0  0  0  0  0  0  0  0  0  0
   -0.6895   -0.5974   -0.8150 H   0  0  0  0  0  0  0  0  0  0  0  0
    3.7607   -1.0818    0.4251 H   0  0  0  0  0  0  0  0  0  0  0  0
    4.5481    1.2694    0.5605 H   0  0  0  0  0  0  0  0  0  0  0  0
    2.8844    3.1029    0.2099 H   0  0  0  0  0  0  0  0  0  0  0  0
    0.7942   -2.0104    1.9883 H   0  0  0  0  0  0  0  0  0  0  0  0
    0.4836   -3.4637    1.1023 H   0  0  0  0  0  0  0  0  0  0  0  0
  1 13  2  0  0  0  0
  2  7  1  0  0  0  0
  2 10  1  0  0  0  0
  2 27  1  0  0  0  0
  3 10  1  0  0  0  0
  3 15  2  0  0  0  0
  4 13  1  0  0  0  0
  4 31  1  0  0  0  0
  4 32  1  0  0  0  0
  5  6  1  0  0  0  0
  5  8  1  0  0  0  0
  5  9  1  0  0  0  0
  5 16  1  0  0  0  0
  6  7  1  0  0  0  0
  6 17  1  0  0  0  0
  6 18  1  0  0  0  0
  7 19  1  0  0  0  0
  7 20  1  0  0  0  0
  8 21  1  0  0  0  0
  8 22  1  0  0  0  0
  8 23  1  0  0  0  0
  9 24  1  0  0  0  0
  9 25  1  0  0  0  0
  9 26  1  0  0  0  0
 10 11  2  0  0  0  0
 11 12  1  0  0  0  0
 11 13  1  0  0  0  0
 12 14  2  0  0  0  0
 12 28  1  0  0  0  0
 14 15  1  0  0  0  0
 14 29  1  0  0  0  0
 15 30  1  0  0  0  0
M  END
>  <PUBCHEM_COMPOUND_CID>
28534862

>  <PUBCHEM_CONFORMER_RMSD>
0.6

>  <PUBCHEM_CONFORMER_DIVERSEORDER>
1
56
29
37
54
45
51
36
18
47
23
52
42
55
38
48
34
20
43
50
40
21
46
15
35
26
44
53
2
25
4
17
30
11
49
24
16
27
3
8
31
39
12
28
7
19
41
13
6
33
22
5
9
32
10
14

>  <PUBCHEM_MMFF94_PARTIAL_CHARGES>
17
1 -0.57
10 0.41
11 0.09
12 -0.15
13 0.54
14 -0.15
15 0.16
2 -0.87
27 0.4
28 0.15
29 0.15
3 -0.62
30 0.15
31 0.37
32 0.37
4 -0.8
7 0.37

>  <PUBCHEM_EFFECTIVE_ROTOR_COUNT>
5

>  <PUBCHEM_PHARMACOPHORE_FEATURES>
7
1 1 acceptor
1 2 cation
1 2 donor
1 3 acceptor
1 4 donor
3 5 8 9 hydrophobe
6 3 10 11 12 14 15 rings

>  <PUBCHEM_HEAVY_ATOM_COUNT>
15

>  <PUBCHEM_ATOM_DEF_STEREO_COUNT>
0

>  <PUBCHEM_ATOM_UDEF_STEREO_COUNT>
0

>  <PUBCHEM_BOND_DEF_STEREO_COUNT>
0

>  <PUBCHEM_BOND_UDEF_STEREO_COUNT>
0

>  <PUBCHEM_ISOTOPIC_ATOM_COUNT>
0

>  <PUBCHEM_COMPONENT_COUNT>
1

>  <PUBCHEM_CACTVS_TAUTO_COUNT>
7

>  <PUBCHEM_CONFORMER_ID>
01B3684E00000001

>  <PUBCHEM_MMFF94_ENERGY>
46.3327

>  <PUBCHEM_FEATURE_SELFOVERLAP>
35.521

>  <PUBCHEM_SHAPE_FINGERPRINT>
10922049 32 18410856594585025604
10980938 120 18413388717743995773
11067466 332 18114756957509565638
11471102 22 18334859398275755265
12841375 5 17916035568080780006
13032168 30 18125435560842415107
13380535 76 18337109072096459722
14251717 144 18410572911694509235
14252887 29 18260558813971512217
15375358 24 17894342281474907925
15502708 68 18410568492125740848
15635459 17 18260548888212641027
18186145 218 18272933855781013460
19049666 15 17898002426529099141
200 152 18271796956916314309
201361 129 18060146409517642289
20201158 50 18187365415663358435
20279233 1 17821729425438023745
204376 136 18266175213513022604
20645477 70 18339910516518808669
21524375 3 18339639070116796674
21730867 7 18410011018076215501
23557571 272 16660917773576401301
2871803 45 18334286574693557063
33824 294 18335135410454933539
458136 41 18337972146048663636
474229 33 18336824315954431028
581208 293 18408603682016237821
7364860 26 18271244924078649902
81228 2 17472115754337889088
81539 233 18334571356388767438
9709674 26 18335140873885500999

>  <PUBCHEM_SHAPE_MULTIPOLES>
287.88
7.23
2.38
1.01
7.03
1.23
0.16
-0.98
1.07
-1.79
-0.07
0.61
0.12
0.14

>  <PUBCHEM_SHAPE_SELFOVERLAP>
580.894

>  <PUBCHEM_SHAPE_VOLUME>
168.2

>  <PUBCHEM_COORDINATE_TYPE>
2
5
10

$$$$
