28552138
 OpenBabel01182520543D

 40 40  0  0  0  0  0  0  0  0999 V2000
   -2.3880    2.5490   -0.4593 O   0  0  0  0  0  0  0  0  0  0  0  0
    2.7195   -0.5813    1.2413 N   0  0  0  0  0  0  0  0  0  0  0  0
    0.0038    0.1263   -0.3672 N   0  0  0  0  0  0  0  0  0  0  0  0
   -1.2934   -1.8156   -0.5524 N   0  0  0  0  0  0  0  0  0  0  0  0
   -1.9453    2.0538    1.7355 N   0  0  0  0  0  0  0  0  0  0  0  0
    2.3728    0.4840   -1.0254 C   0  0  0  0  0  0  0  0  0  0  0  0
    2.8723    0.6291    0.4388 C   0  0  0  0  0  0  0  0  0  0  0  0
    1.1081   -0.4046   -1.1334 C   0  0  0  0  0  0  0  0  0  0  0  0
    2.0740    1.8954   -1.5750 C   0  0  0  0  0  0  0  0  0  0  0  0
    3.4745   -0.1402   -1.9084 C   0  0  0  0  0  0  0  0  0  0  0  0
    2.6936   -0.2521    2.6667 C   0  0  0  0  0  0  0  0  0  0  0  0
    3.7999   -1.5260    0.9562 C   0  0  0  0  0  0  0  0  0  0  0  0
   -1.2292   -0.4961   -0.2650 C   0  0  0  0  0  0  0  0  0  0  0  0
   -2.3190    0.2675    0.1213 C   0  0  0  0  0  0  0  0  0  0  0  0
   -3.5541   -0.3637    0.2192 C   0  0  0  0  0  0  0  0  0  0  0  0
   -2.2189    1.6891    0.4215 C   0  0  0  0  0  0  0  0  0  0  0  0
   -2.5104   -2.3947   -0.4462 C   0  0  0  0  0  0  0  0  0  0  0  0
   -3.6602   -1.7200   -0.0683 C   0  0  0  0  0  0  0  0  0  0  0  0
    3.9007    1.0153    0.4688 H   0  0  0  0  0  0  0  0  0  0  0  0
    2.2661    1.4200    0.9033 H   0  0  0  0  0  0  0  0  0  0  0  0
    0.8050   -0.4698   -2.1870 H   0  0  0  0  0  0  0  0  0  0  0  0
    1.3305   -1.4300   -0.8143 H   0  0  0  0  0  0  0  0  0  0  0  0
    2.9801    2.5123   -1.5767 H   0  0  0  0  0  0  0  0  0  0  0  0
    1.7026    1.8491   -2.6051 H   0  0  0  0  0  0  0  0  0  0  0  0
    1.3217    2.4220   -0.9781 H   0  0  0  0  0  0  0  0  0  0  0  0
    4.4543    0.3050   -1.7041 H   0  0  0  0  0  0  0  0  0  0  0  0
    3.2581    0.0336   -2.9700 H   0  0  0  0  0  0  0  0  0  0  0  0
    3.5557   -1.2226   -1.8009 H   0  0  0  0  0  0  0  0  0  0  0  0
    0.1856    0.8909    0.2731 H   0  0  0  0  0  0  0  0  0  0  0  0
    1.8515    0.4105    2.8968 H   0  0  0  0  0  0  0  0  0  0  0  0
    3.6191    0.2355    2.9940 H   0  0  0  0  0  0  0  0  0  0  0  0
    2.5467   -1.1553    3.2696 H   0  0  0  0  0  0  0  0  0  0  0  0
    3.6449   -2.0461    0.0116 H   0  0  0  0  0  0  0  0  0  0  0  0
    3.8143   -2.3265    1.7066 H   0  0  0  0  0  0  0  0  0  0  0  0
    4.7901   -1.0568    0.9623 H   0  0  0  0  0  0  0  0  0  0  0  0
   -4.4404    0.1901    0.5174 H   0  0  0  0  0  0  0  0  0  0  0  0
   -2.5397   -3.4536   -0.6811 H   0  0  0  0  0  0  0  0  0  0  0  0
   -4.6127   -2.2327    0.0011 H   0  0  0  0  0  0  0  0  0  0  0  0
   -1.8102    1.3653    2.4691 H   0  0  0  0  0  0  0  0  0  0  0  0
   -1.8705    3.0301    2.0014 H   0  0  0  0  0  0  0  0  0  0  0  0
  1 16  2  0  0  0  0
  2  7  1  0  0  0  0
  2 11  1  0  0  0  0
  2 12  1  0  0  0  0
  3  8  1  0  0  0  0
  3 13  1  0  0  0  0
  3 29  1  0  0  0  0
  4 13  1  0  0  0  0
  4 17  2  0  0  0  0
  5 16  1  0  0  0  0
  5 39  1  0  0  0  0
  5 40  1  0  0  0  0
  6  7  1  0  0  0  0
  6  8  1  0  0  0  0
  6  9  1  0  0  0  0
  6 10  1  0  0  0  0
  7 19  1  0  0  0  0
  7 20  1  0  0  0  0
  8 21  1  0  0  0  0
  8 22  1  0  0  0  0
  9 23  1  0  0  0  0
  9 24  1  0  0  0  0
  9 25  1  0  0  0  0
 10 26  1  0  0  0  0
 10 27  1  0  0  0  0
 10 28  1  0  0  0  0
 11 30  1  0  0  0  0
 11 31  1  0  0  0  0
 11 32  1  0  0  0  0
 12 33  1  0  0  0  0
 12 34  1  0  0  0  0
 12 35  1  0  0  0  0
 13 14  2  0  0  0  0
 14 15  1  0  0  0  0
 14 16  1  0  0  0  0
 15 18  2  0  0  0  0
 15 36  1  0  0  0  0
 17 18  1  0  0  0  0
 17 37  1  0  0  0  0
 18 38  1  0  0  0  0
M  END
>  <PUBCHEM_COMPOUND_CID>
28552138

>  <PUBCHEM_CONFORMER_RMSD>
0.8

>  <PUBCHEM_CONFORMER_DIVERSEORDER>
3
95
29
37
35
84
48
94
46
75
82
50
68
53
47
91
19
83
81
80
71
45
72
93
56
34
57
62
69
13
101
24
85
77
63
65
5
21
55
64
89
78
102
76
86
11
27
87
25
79
2
99
40
60
73
97
74
67
32
6
26
59
70
66
23
49
103
98
61
14
8
12
42
36
52
38
10
88
1
44
7
90
20
58
17
54
22
41
30
16
15
96
100
33
92
39
43
9
51
31
18
28
4

>  <PUBCHEM_MMFF94_PARTIAL_CHARGES>
21
1 -0.57
11 0.27
12 0.27
13 0.41
14 0.09
15 -0.15
16 0.54
17 0.16
18 -0.15
2 -0.81
29 0.4
3 -0.87
36 0.15
37 0.15
38 0.15
39 0.37
4 -0.62
40 0.37
5 -0.8
7 0.27
8 0.37

>  <PUBCHEM_EFFECTIVE_ROTOR_COUNT>
6

>  <PUBCHEM_PHARMACOPHORE_FEATURES>
8
1 1 acceptor
1 2 cation
1 3 cation
1 3 donor
1 4 acceptor
1 5 donor
3 6 9 10 hydrophobe
6 4 13 14 15 17 18 rings

>  <PUBCHEM_HEAVY_ATOM_COUNT>
18

>  <PUBCHEM_ATOM_DEF_STEREO_COUNT>
0

>  <PUBCHEM_ATOM_UDEF_STEREO_COUNT>
0

>  <PUBCHEM_BOND_DEF_STEREO_COUNT>
0

>  <PUBCHEM_BOND_UDEF_STEREO_COUNT>
0

>  <PUBCHEM_ISOTOPIC_ATOM_COUNT>
0

>  <PUBCHEM_COMPONENT_COUNT>
1

>  <PUBCHEM_CACTVS_TAUTO_COUNT>
7

>  <PUBCHEM_CONFORMER_ID>
01B3ABCA00000003

>  <PUBCHEM_MMFF94_ENERGY>
71.0334

>  <PUBCHEM_FEATURE_SELFOVERLAP>
40.595

>  <PUBCHEM_SHAPE_FINGERPRINT>
10366900 7 17632856451415469974
11615756 56 17203313490766410096
12553582 1 18125161795221536535
12596599 1 17749384845616926314
13083527 12 16478498095844430247
13538477 17 18335422399810897815
14144814 61 18334018284870663364
14787075 74 16673613082454287982
15295992 7 16844739607659382955
15852999 172 18057029208322324045
16752209 62 18411132528943342999
1813 80 17387129759516476458
18222031 100 17843689000670596191
19049666 15 17417540090059599454
192875 21 18335687318000009997
20510252 161 18201167632244876601
20559304 39 18334573581440263374
20645477 70 15574708119109404778
21486144 27 15267068093877467935
22112679 90 18187365394104281836
2255824 54 17605281877017958948
23419403 2 17190886982469757085
23503958 8 18338790131223984130
23557571 272 18060415841548226297
23559900 14 18131361807866218564
23598291 2 17894918382190915364
23598294 1 18337966635516036617
31174 14 16200159840870608078
312423 11 18114476611919434014
474 4 17461734084097511796
6049 1 17418383492797934576
621550 5 16483640356796972788
6992083 37 18188771613472918268
7097593 13 18189046517234166162
7615 1 18259703406319562860
77492 1 18040716978197768567
81228 2 18272381896833129171
90316 7 18411136957144471313
9981440 41 17040373865445655004

>  <PUBCHEM_SHAPE_MULTIPOLES>
344.64
7.23
2.34
1.85
0.52
0.56
0.84
-1.9
0.53
-1.73
-0.05
2.24
0.17
-1.7

>  <PUBCHEM_SHAPE_SELFOVERLAP>
695.591

>  <PUBCHEM_SHAPE_VOLUME>
202.3

>  <PUBCHEM_COORDINATE_TYPE>
2
5
10

$$$$
