29031037
 OpenBabel01182520543D

 29 29  0  0  0  0  0  0  0  0999 V2000
    0.8509   -2.4594   -1.2290 O   0  0  0  0  0  0  0  0  0  0  0  0
   -0.7268    0.3922   -0.2390 N   0  0  0  0  0  0  0  0  0  0  0  0
    1.0840    1.8556    0.0294 N   0  0  0  0  0  0  0  0  0  0  0  0
    0.5699   -2.5416    1.0453 N   0  0  0  0  0  0  0  0  0  0  0  0
   -3.0896    0.9275   -0.5638 C   0  0  0  0  0  0  0  0  0  0  0  0
   -1.6848    1.4690   -0.3123 C   0  0  0  0  0  0  0  0  0  0  0  0
   -3.5804    0.0145    0.5625 C   0  0  0  0  0  0  0  0  0  0  0  0
    0.6355    0.5841   -0.0695 C   0  0  0  0  0  0  0  0  0  0  0  0
   -5.0056   -0.4554    0.3150 C   0  0  0  0  0  0  0  0  0  0  0  0
    1.4529   -0.5333   -0.0145 C   0  0  0  0  0  0  0  0  0  0  0  0
    2.8187   -0.3329    0.1529 C   0  0  0  0  0  0  0  0  0  0  0  0
    3.3181    0.9604    0.2588 C   0  0  0  0  0  0  0  0  0  0  0  0
    0.9401   -1.8918   -0.1273 C   0  0  0  0  0  0  0  0  0  0  0  0
    2.4172    2.0110    0.1914 C   0  0  0  0  0  0  0  0  0  0  0  0
   -3.1089    0.3770   -1.5129 H   0  0  0  0  0  0  0  0  0  0  0  0
   -3.7775    1.7749   -0.6720 H   0  0  0  0  0  0  0  0  0  0  0  0
   -1.6746    2.0466    0.6197 H   0  0  0  0  0  0  0  0  0  0  0  0
   -1.4201    2.1493   -1.1304 H   0  0  0  0  0  0  0  0  0  0  0  0
   -3.5409    0.5504    1.5180 H   0  0  0  0  0  0  0  0  0  0  0  0
   -2.9328   -0.8642    0.6566 H   0  0  0  0  0  0  0  0  0  0  0  0
   -1.0121   -0.4937   -0.6437 H   0  0  0  0  0  0  0  0  0  0  0  0
   -5.0749   -1.0218   -0.6192 H   0  0  0  0  0  0  0  0  0  0  0  0
   -5.3378   -1.1044    1.1313 H   0  0  0  0  0  0  0  0  0  0  0  0
   -5.6940    0.3935    0.2547 H   0  0  0  0  0  0  0  0  0  0  0  0
    3.5034   -1.1755    0.2018 H   0  0  0  0  0  0  0  0  0  0  0  0
    4.3790    1.1406    0.3897 H   0  0  0  0  0  0  0  0  0  0  0  0
    2.7559    3.0389    0.2685 H   0  0  0  0  0  0  0  0  0  0  0  0
    0.6421   -2.0961    1.9546 H   0  0  0  0  0  0  0  0  0  0  0  0
    0.2119   -3.4906    1.0253 H   0  0  0  0  0  0  0  0  0  0  0  0
  1 13  2  0  0  0  0
  2  6  1  0  0  0  0
  2  8  1  0  0  0  0
  2 21  1  0  0  0  0
  3  8  1  0  0  0  0
  3 14  2  0  0  0  0
  4 13  1  0  0  0  0
  4 28  1  0  0  0  0
  4 29  1  0  0  0  0
  5  6  1  0  0  0  0
  5  7  1  0  0  0  0
  5 15  1  0  0  0  0
  5 16  1  0  0  0  0
  6 17  1  0  0  0  0
  6 18  1  0  0  0  0
  7  9  1  0  0  0  0
  7 19  1  0  0  0  0
  7 20  1  0  0  0  0
  8 10  2  0  0  0  0
  9 22  1  0  0  0  0
  9 23  1  0  0  0  0
  9 24  1  0  0  0  0
 10 11  1  0  0  0  0
 10 13  1  0  0  0  0
 11 12  2  0  0  0  0
 11 25  1  0  0  0  0
 12 14  1  0  0  0  0
 12 26  1  0  0  0  0
 14 27  1  0  0  0  0
M  END
>  <PUBCHEM_COMPOUND_CID>
29031037

>  <PUBCHEM_CONFORMER_RMSD>
0.6

>  <PUBCHEM_CONFORMER_DIVERSEORDER>
3
53
49
50
55
27
5
47
35
41
36
43
42
37
32
54
33
11
48
51
29
56
34
14
21
52
20
46
17
19
10
13
45
12
7
39
38
1
26
28
9
44
23
15
40
2
22
30
6
16
4
31
18
8
25
24

>  <PUBCHEM_MMFF94_PARTIAL_CHARGES>
17
1 -0.57
10 0.09
11 -0.15
12 -0.15
13 0.54
14 0.16
2 -0.87
21 0.4
25 0.15
26 0.15
27 0.15
28 0.37
29 0.37
3 -0.62
4 -0.8
6 0.37
8 0.41

>  <PUBCHEM_EFFECTIVE_ROTOR_COUNT>
5

>  <PUBCHEM_PHARMACOPHORE_FEATURES>
7
1 1 acceptor
1 2 cation
1 2 donor
1 3 acceptor
1 4 donor
1 9 hydrophobe
6 3 8 10 11 12 14 rings

>  <PUBCHEM_HEAVY_ATOM_COUNT>
14

>  <PUBCHEM_ATOM_DEF_STEREO_COUNT>
0

>  <PUBCHEM_ATOM_UDEF_STEREO_COUNT>
0

>  <PUBCHEM_BOND_DEF_STEREO_COUNT>
0

>  <PUBCHEM_BOND_UDEF_STEREO_COUNT>
0

>  <PUBCHEM_ISOTOPIC_ATOM_COUNT>
0

>  <PUBCHEM_COMPONENT_COUNT>
1

>  <PUBCHEM_CACTVS_TAUTO_COUNT>
7

>  <PUBCHEM_CONFORMER_ID>
01BAFA7D00000003

>  <PUBCHEM_MMFF94_ENERGY>
40.7882

>  <PUBCHEM_FEATURE_SELFOVERLAP>
35.521

>  <PUBCHEM_SHAPE_FINGERPRINT>
10922049 32 18411421734829362524
12841375 5 17773331044748991159
13380535 76 18409449227822161819
14178342 30 18195801869272573240
14251717 144 18411699902660149659
14252887 29 18335151877665235443
15375358 24 18040713671827214289
16945 1 18201431442132102580
17990270 104 18125437501761126271
20201158 50 18333734598376120411
20279233 1 18040155098403314985
20645477 70 18341320090626116493
21524375 3 18339640143821560986
21730867 7 18410576158652920245
23557571 272 16660919981500840661
2748010 2 18338519745899907780
2871803 45 18335135384885420999
33824 294 18408322194471201507
474229 33 18337670939728470521
581208 293 18410854378176315297
5902787 121 17830166909617622523
7364860 26 18271244906787926431
81228 2 17473240545937473552
81539 233 18335136492448887357
9709674 26 18408327662175669739

>  <PUBCHEM_SHAPE_MULTIPOLES>
267.3
6.79
2.47
0.82
9.12
1.25
-0.04
-1.22
1
-1.47
-0.09
0.08
0.32
0.44

>  <PUBCHEM_SHAPE_SELFOVERLAP>
539.92

>  <PUBCHEM_SHAPE_VOLUME>
155.7

>  <PUBCHEM_COORDINATE_TYPE>
2
5
10

$$$$
