29038516
 OpenBabel01182520543D

 23 23  0  0  0  0  0  0  0  0999 V2000
    3.1561    0.6797    1.0704 F   0  0  0  0  0  0  0  0  0  0  0  0
    4.1346   -0.9516    0.0056 F   0  0  0  0  0  0  0  0  0  0  0  0
    3.1334    0.6281   -1.1146 F   0  0  0  0  0  0  0  0  0  0  0  0
   -1.3786    2.4358   -1.1186 O   0  0  0  0  0  0  0  0  0  0  0  0
    0.6531   -0.0697    0.0050 N   0  0  0  0  0  0  0  0  0  0  0  0
   -0.8687   -1.8875    0.0243 N   0  0  0  0  0  0  0  0  0  0  0  0
   -1.3852    2.4763    1.1742 N   0  0  0  0  0  0  0  0  0  0  0  0
    1.7830   -0.9397    0.0295 C   0  0  0  0  0  0  0  0  0  0  0  0
   -0.6811   -0.5487    0.0036 C   0  0  0  0  0  0  0  0  0  0  0  0
   -1.7106    0.3783   -0.0212 C   0  0  0  0  0  0  0  0  0  0  0  0
    3.0585   -0.1337   -0.0026 C   0  0  0  0  0  0  0  0  0  0  0  0
   -3.0165   -0.0991   -0.0250 C   0  0  0  0  0  0  0  0  0  0  0  0
   -3.2497   -1.4697   -0.0042 C   0  0  0  0  0  0  0  0  0  0  0  0
   -1.4767    1.8157   -0.0464 C   0  0  0  0  0  0  0  0  0  0  0  0
   -2.1515   -2.3142    0.0199 C   0  0  0  0  0  0  0  0  0  0  0  0
    1.7717   -1.5569    0.9350 H   0  0  0  0  0  0  0  0  0  0  0  0
    1.7666   -1.6120   -0.8358 H   0  0  0  0  0  0  0  0  0  0  0  0
    0.7865    0.8809    0.3347 H   0  0  0  0  0  0  0  0  0  0  0  0
   -3.8599    0.5860   -0.0449 H   0  0  0  0  0  0  0  0  0  0  0  0
   -4.2592   -1.8645   -0.0068 H   0  0  0  0  0  0  0  0  0  0  0  0
   -2.2795   -3.3915    0.0367 H   0  0  0  0  0  0  0  0  0  0  0  0
   -1.4697    1.9871    2.0596 H   0  0  0  0  0  0  0  0  0  0  0  0
   -1.2291    3.4779    1.2151 H   0  0  0  0  0  0  0  0  0  0  0  0
  1 11  1  0  0  0  0
  2 11  1  0  0  0  0
  3 11  1  0  0  0  0
  4 14  2  0  0  0  0
  5  8  1  0  0  0  0
  5  9  1  0  0  0  0
  5 18  1  0  0  0  0
  6  9  1  0  0  0  0
  6 15  2  0  0  0  0
  7 14  1  0  0  0  0
  7 22  1  0  0  0  0
  7 23  1  0  0  0  0
  8 11  1  0  0  0  0
  8 16  1  0  0  0  0
  8 17  1  0  0  0  0
  9 10  2  0  0  0  0
 10 12  1  0  0  0  0
 10 14  1  0  0  0  0
 12 13  2  0  0  0  0
 12 19  1  0  0  0  0
 13 15  1  0  0  0  0
 13 20  1  0  0  0  0
 15 21  1  0  0  0  0
M  END
>  <PUBCHEM_COMPOUND_CID>
29038516

>  <PUBCHEM_CONFORMER_RMSD>
0.6

>  <PUBCHEM_CONFORMER_DIVERSEORDER>
1
9
6
12
10
11
3
5
7
4
2
8

>  <PUBCHEM_MMFF94_PARTIAL_CHARGES>
21
1 -0.34
10 0.09
11 1.02
12 -0.15
13 -0.15
14 0.54
15 0.16
18 0.4
19 0.15
2 -0.34
20 0.15
21 0.15
22 0.37
23 0.37
3 -0.34
4 -0.57
5 -0.87
6 -0.62
7 -0.8
8 0.37
9 0.41

>  <PUBCHEM_EFFECTIVE_ROTOR_COUNT>
4

>  <PUBCHEM_PHARMACOPHORE_FEATURES>
6
1 4 acceptor
1 5 cation
1 5 donor
1 6 acceptor
1 7 donor
6 6 9 10 12 13 15 rings

>  <PUBCHEM_HEAVY_ATOM_COUNT>
15

>  <PUBCHEM_ATOM_DEF_STEREO_COUNT>
0

>  <PUBCHEM_ATOM_UDEF_STEREO_COUNT>
0

>  <PUBCHEM_BOND_DEF_STEREO_COUNT>
0

>  <PUBCHEM_BOND_UDEF_STEREO_COUNT>
0

>  <PUBCHEM_ISOTOPIC_ATOM_COUNT>
0

>  <PUBCHEM_COMPONENT_COUNT>
1

>  <PUBCHEM_CACTVS_TAUTO_COUNT>
7

>  <PUBCHEM_CONFORMER_ID>
01BB17B400000001

>  <PUBCHEM_MMFF94_ENERGY>
46.714

>  <PUBCHEM_FEATURE_SELFOVERLAP>
30.446

>  <PUBCHEM_SHAPE_FINGERPRINT>
10608611 8 18342734105260025106
11132069 177 18341327868273883907
11680986 33 17834109024503147547
13024252 1 17167864162572394315
14614273 12 18263079908113447805
16945 1 18335697256480336495
20510252 161 18413106156156377323
20871998 184 18272373091955364103
21029758 11 18270954769648273535
21029758 27 18188500206474562271
21524375 3 18049441440019138521
2297311 6 18270414870525925790
2306618 200 18201725011383245915
23402539 116 18341885299468948503
23557571 272 18342748441591976958
23559900 14 18413382142797873186
2748010 2 18123458651598626851
537710 114 18263651817305260541
7364860 26 17621602043967588027
81228 2 18337685160555111283
84936 182 17188389591788954953

>  <PUBCHEM_SHAPE_MULTIPOLES>
266.06
5.93
2.49
0.84
6.06
0.97
0
-1.62
-0.03
-2.06
0.06
0.17
0.44
0

>  <PUBCHEM_SHAPE_SELFOVERLAP>
555.274

>  <PUBCHEM_SHAPE_VOLUME>
151.2

>  <PUBCHEM_COORDINATE_TYPE>
2
5
10

$$$$
