29048197
 OpenBabel01182520543D

 29 30  0  0  0  0  0  0  0  0999 V2000
   -1.7929    2.5602   -0.9747 O   0  0  0  0  0  0  0  0  0  0  0  0
   -0.0858   -0.2507   -0.0515 N   0  0  0  0  0  0  0  0  0  0  0  0
   -1.8345   -1.8512   -0.0829 N   0  0  0  0  0  0  0  0  0  0  0  0
    4.2951   -0.1368    1.1770 N   0  0  0  0  0  0  0  0  0  0  0  0
   -1.7397    2.4693    1.3160 N   0  0  0  0  0  0  0  0  0  0  0  0
    0.9189   -1.2614   -0.1090 C   0  0  0  0  0  0  0  0  0  0  0  0
    2.2897   -0.6446   -0.0743 C   0  0  0  0  0  0  0  0  0  0  0  0
   -1.4715   -0.5496   -0.0372 C   0  0  0  0  0  0  0  0  0  0  0  0
   -2.3690    0.5044    0.0200 C   0  0  0  0  0  0  0  0  0  0  0  0
    2.8266   -0.0282   -1.1991 C   0  0  0  0  0  0  0  0  0  0  0  0
   -3.7264    0.2035    0.0311 C   0  0  0  0  0  0  0  0  0  0  0  0
    3.0575   -0.6720    1.0788 C   0  0  0  0  0  0  0  0  0  0  0  0
   -4.1391   -1.1235   -0.0146 C   0  0  0  0  0  0  0  0  0  0  0  0
   -1.9471    1.8977    0.0650 C   0  0  0  0  0  0  0  0  0  0  0  0
   -3.1624   -2.1049   -0.0704 C   0  0  0  0  0  0  0  0  0  0  0  0
    4.0969    0.5339   -1.1373 C   0  0  0  0  0  0  0  0  0  0  0  0
    4.7838    0.4538    0.0634 C   0  0  0  0  0  0  0  0  0  0  0  0
    0.8224   -1.8545   -1.0274 H   0  0  0  0  0  0  0  0  0  0  0  0
    0.8097   -1.9611    0.7293 H   0  0  0  0  0  0  0  0  0  0  0  0
    0.1756    0.6548    0.3262 H   0  0  0  0  0  0  0  0  0  0  0  0
    2.2643    0.0196   -2.1277 H   0  0  0  0  0  0  0  0  0  0  0  0
   -4.4716    0.9935    0.0743 H   0  0  0  0  0  0  0  0  0  0  0  0
    2.6936   -1.1365    1.9900 H   0  0  0  0  0  0  0  0  0  0  0  0
   -5.1918   -1.3816   -0.0072 H   0  0  0  0  0  0  0  0  0  0  0  0
   -3.4319   -3.1552   -0.1076 H   0  0  0  0  0  0  0  0  0  0  0  0
    4.5354    1.0195   -2.0015 H   0  0  0  0  0  0  0  0  0  0  0  0
    5.7780    0.8768    0.1636 H   0  0  0  0  0  0  0  0  0  0  0  0
   -1.8672    1.9454    2.1760 H   0  0  0  0  0  0  0  0  0  0  0  0
   -1.4510    3.4377    1.4058 H   0  0  0  0  0  0  0  0  0  0  0  0
  1 14  2  0  0  0  0
  2  6  1  0  0  0  0
  2  8  1  0  0  0  0
  2 20  1  0  0  0  0
  3  8  1  0  0  0  0
  3 15  2  0  0  0  0
  4 12  1  0  0  0  0
  4 17  2  0  0  0  0
  5 14  1  0  0  0  0
  5 28  1  0  0  0  0
  5 29  1  0  0  0  0
  6  7  1  0  0  0  0
  6 18  1  0  0  0  0
  6 19  1  0  0  0  0
  7 10  1  0  0  0  0
  7 12  2  0  0  0  0
  8  9  2  0  0  0  0
  9 11  1  0  0  0  0
  9 14  1  0  0  0  0
 10 16  2  0  0  0  0
 10 21  1  0  0  0  0
 11 13  2  0  0  0  0
 11 22  1  0  0  0  0
 12 23  1  0  0  0  0
 13 15  1  0  0  0  0
 13 24  1  0  0  0  0
 15 25  1  0  0  0  0
 16 17  1  0  0  0  0
 16 26  1  0  0  0  0
 17 27  1  0  0  0  0
M  END
>  <PUBCHEM_COMPOUND_CID>
29048197

>  <PUBCHEM_CONFORMER_RMSD>
0.6

>  <PUBCHEM_CONFORMER_DIVERSEORDER>
2
61
24
78
53
71
38
64
79
31
43
67
56
26
15
70
66
59
62
32
80
37
68
44
63
23
77
55
69
13
12
27
72
54
65
57
25
14
45
6
74
35
48
28
30
51
16
9
75
46
33
17
47
10
21
5
36
1
50
29
49
34
4
11
22
73
58
3
8
76
20
52
18
7
60
19
39
41
40
42

>  <PUBCHEM_MMFF94_PARTIAL_CHARGES>
27
1 -0.57
10 -0.15
11 -0.15
12 0.16
13 -0.15
14 0.54
15 0.16
16 -0.15
17 0.16
2 -0.87
20 0.4
21 0.15
22 0.15
23 0.15
24 0.15
25 0.15
26 0.15
27 0.15
28 0.37
29 0.37
3 -0.62
4 -0.62
5 -0.8
6 0.51
7 -0.14
8 0.41
9 0.09

>  <PUBCHEM_EFFECTIVE_ROTOR_COUNT>
4

>  <PUBCHEM_PHARMACOPHORE_FEATURES>
8
1 1 acceptor
1 2 cation
1 2 donor
1 3 acceptor
1 4 acceptor
1 5 donor
6 3 8 9 11 13 15 rings
6 4 7 10 12 16 17 rings

>  <PUBCHEM_HEAVY_ATOM_COUNT>
17

>  <PUBCHEM_ATOM_DEF_STEREO_COUNT>
0

>  <PUBCHEM_ATOM_UDEF_STEREO_COUNT>
0

>  <PUBCHEM_BOND_DEF_STEREO_COUNT>
0

>  <PUBCHEM_BOND_UDEF_STEREO_COUNT>
0

>  <PUBCHEM_ISOTOPIC_ATOM_COUNT>
0

>  <PUBCHEM_COMPONENT_COUNT>
1

>  <PUBCHEM_CACTVS_TAUTO_COUNT>
7

>  <PUBCHEM_CONFORMER_ID>
01BB3D8500000002

>  <PUBCHEM_MMFF94_ENERGY>
60.4717

>  <PUBCHEM_FEATURE_SELFOVERLAP>
40.596

>  <PUBCHEM_SHAPE_FINGERPRINT>
10366900 7 18201433705242380874
10498660 4 18413109433338074476
10646746 165 18343581816130347288
11132069 177 18342179959889483143
12107183 9 17612014985663177074
12173636 292 18056200163881393545
12236239 1 17894628171082179146
12403814 3 17968097495659615909
13897977 58 18409735074975229540
14739800 52 18193548094834429744
1741750 31 18199187278495904593
17492 89 18260827047048130762
17802600 8 18409727383000285604
18186145 218 15913324693867557398
19050596 39 18186801391767880362
192875 21 17676204693151066500
200 152 17530960319397177535
20510252 161 18342177735059526747
20715895 44 17679849424221916693
21029758 27 18262525917820638207
21486144 27 15984813882995587714
21652331 79 18337389447904485868
22182937 141 17845382041785912681
2297311 6 18271821145507500118
23048698 100 17240481416486822026
2306618 200 17749658624138316847
23402539 116 18411129268889371559
23557571 272 18201732742345367028
23559900 14 18271249313883646102
312423 11 18041570148103561754
3268164 11 18272080600128725693
4214541 1 18338797815046673866
474 4 17096941380672619644
5281201 14 17203057322301496508
573450 72 18260819389289460810
6049 1 17704355459402799880
7097593 13 17753315488122538290
81228 2 18339096907979187411
9925002 15 17412172544765104183

>  <PUBCHEM_SHAPE_MULTIPOLES>
324.06
9.28
2.16
1.03
6.47
1.09
0.06
-0.73
0.13
-2.69
0.09
0.88
0.28
-0.46

>  <PUBCHEM_SHAPE_SELFOVERLAP>
692.361

>  <PUBCHEM_SHAPE_VOLUME>
177.1

>  <PUBCHEM_COORDINATE_TYPE>
2
5
10

$$$$
