29040678
 OpenBabel01182520543D

 24 25  0  0  0  0  0  0  0  0999 V2000
   -1.6093    2.2867    1.0447 O   0  0  0  0  0  0  0  0  0  0  0  0
    1.1576    0.4632    0.3005 N   0  0  0  0  0  0  0  0  0  0  0  0
    0.2356   -1.7167    0.1652 N   0  0  0  0  0  0  0  0  0  0  0  0
   -1.3398    2.3041   -1.2325 N   0  0  0  0  0  0  0  0  0  0  0  0
    2.4814   -0.0435    0.4588 C   0  0  0  0  0  0  0  0  0  0  0  0
    3.3168   -0.4296   -0.7262 C   0  0  0  0  0  0  0  0  0  0  0  0
    3.6804    0.7784    0.0863 C   0  0  0  0  0  0  0  0  0  0  0  0
    0.0280   -0.3808    0.1541 C   0  0  0  0  0  0  0  0  0  0  0  0
   -1.2167    0.2096    0.0062 C   0  0  0  0  0  0  0  0  0  0  0  0
   -2.3195   -0.6247   -0.1397 C   0  0  0  0  0  0  0  0  0  0  0  0
   -1.4082    1.6533   -0.0052 C   0  0  0  0  0  0  0  0  0  0  0  0
   -0.8599   -2.4957    0.0210 C   0  0  0  0  0  0  0  0  0  0  0  0
   -2.1464   -2.0043   -0.1332 C   0  0  0  0  0  0  0  0  0  0  0  0
    2.5919   -0.6411    1.3591 H   0  0  0  0  0  0  0  0  0  0  0  0
    2.9150   -0.2653   -1.7187 H   0  0  0  0  0  0  0  0  0  0  0  0
    3.9442   -1.3077   -0.6357 H   0  0  0  0  0  0  0  0  0  0  0  0
    4.5549    0.7142    0.7219 H   0  0  0  0  0  0  0  0  0  0  0  0
    3.5208    1.7519   -0.3611 H   0  0  0  0  0  0  0  0  0  0  0  0
    0.9582    1.4162    0.5865 H   0  0  0  0  0  0  0  0  0  0  0  0
   -3.3179   -0.2122   -0.2593 H   0  0  0  0  0  0  0  0  0  0  0  0
   -0.6712   -3.5641    0.0326 H   0  0  0  0  0  0  0  0  0  0  0  0
   -2.9913   -2.6738   -0.2453 H   0  0  0  0  0  0  0  0  0  0  0  0
   -1.1685    1.8041   -2.0991 H   0  0  0  0  0  0  0  0  0  0  0  0
   -1.4594    3.3094   -1.2974 H   0  0  0  0  0  0  0  0  0  0  0  0
  1 11  2  0  0  0  0
  2  5  1  0  0  0  0
  2  8  1  0  0  0  0
  2 19  1  0  0  0  0
  3  8  1  0  0  0  0
  3 12  2  0  0  0  0
  4 11  1  0  0  0  0
  4 23  1  0  0  0  0
  4 24  1  0  0  0  0
  5  6  1  0  0  0  0
  5  7  1  0  0  0  0
  5 14  1  0  0  0  0
  6  7  1  0  0  0  0
  6 15  1  0  0  0  0
  6 16  1  0  0  0  0
  7 17  1  0  0  0  0
  7 18  1  0  0  0  0
  8  9  2  0  0  0  0
  9 10  1  0  0  0  0
  9 11  1  0  0  0  0
 10 13  2  0  0  0  0
 10 20  1  0  0  0  0
 12 13  1  0  0  0  0
 12 21  1  0  0  0  0
 13 22  1  0  0  0  0
M  END
>  <PUBCHEM_COMPOUND_CID>
29040678

>  <PUBCHEM_CONFORMER_RMSD>
0.6

>  <PUBCHEM_CONFORMER_DIVERSEORDER>
1
17
20
9
11
10
22
21
12
15
16
14
19
2
7
18
13
8
5
4
3
6

>  <PUBCHEM_MMFF94_PARTIAL_CHARGES>
24
1 -0.57
10 -0.15
11 0.54
12 0.16
13 -0.15
14 0.1
15 0.1
16 0.1
17 0.1
18 0.1
19 0.4
2 -0.67
20 0.15
21 0.15
22 0.15
23 0.37
24 0.37
3 -0.62
4 -0.8
5 0.07
6 -0.2
7 -0.2
8 0.41
9 0.09

>  <PUBCHEM_EFFECTIVE_ROTOR_COUNT>
3.6

>  <PUBCHEM_PHARMACOPHORE_FEATURES>
6
1 1 acceptor
1 2 cation
1 2 donor
1 3 acceptor
1 4 donor
6 3 8 9 10 12 13 rings

>  <PUBCHEM_HEAVY_ATOM_COUNT>
13

>  <PUBCHEM_ATOM_DEF_STEREO_COUNT>
0

>  <PUBCHEM_ATOM_UDEF_STEREO_COUNT>
0

>  <PUBCHEM_BOND_DEF_STEREO_COUNT>
0

>  <PUBCHEM_BOND_UDEF_STEREO_COUNT>
0

>  <PUBCHEM_ISOTOPIC_ATOM_COUNT>
0

>  <PUBCHEM_COMPONENT_COUNT>
1

>  <PUBCHEM_CACTVS_TAUTO_COUNT>
7

>  <PUBCHEM_CONFORMER_ID>
01BB202600000001

>  <PUBCHEM_MMFF94_ENERGY>
46.1433

>  <PUBCHEM_FEATURE_SELFOVERLAP>
30.446

>  <PUBCHEM_SHAPE_FINGERPRINT>
1 1 17832988243511240174
11206711 2 18410847767852290998
12524768 44 17909257323608176714
12716758 59 18342459197246287386
13024252 1 17458340883560125275
14614273 12 18262228924446507949
15775835 57 18188493462985562936
16945 1 18411131454747987715
17134986 127 17975129842749394308
193761 8 18122904231487620371
19868273 325 18265612276206950982
20510252 161 18342458161879458072
20871998 184 18200599214539988678
21029758 27 17972042693535197783
21296965 67 18121500417005218547
21501502 16 18267584611247096486
21524375 3 18118684309811778977
22802520 49 18130517327349528718
23402539 116 18341320197325435742
23557571 272 18268720591826811316
23559900 14 18342451578522891576
2748010 2 18122067507117007791
3071541 250 17759813932417876271
353137 74 18335129903927084355
81228 2 18337393845676411370

>  <PUBCHEM_SHAPE_MULTIPOLES>
246.72
4.7
2.62
0.83
5.48
0.47
-0.08
-0.25
-0.35
-2.26
-0.09
-0.01
0.34
0.08

>  <PUBCHEM_SHAPE_SELFOVERLAP>
516.381

>  <PUBCHEM_SHAPE_VOLUME>
139.4

>  <PUBCHEM_COORDINATE_TYPE>
2
5
10

$$$$
