29051520
 OpenBabel01182520543D

 32 32  0  0  0  0  0  0  0  0999 V2000
    1.0487    2.3928   -1.3689 O   0  0  0  0  0  0  0  0  0  0  0  0
   -0.2887   -0.5359   -0.3260 N   0  0  0  0  0  0  0  0  0  0  0  0
    1.6302   -1.8009    0.1326 N   0  0  0  0  0  0  0  0  0  0  0  0
    0.6328    2.5670    0.8795 N   0  0  0  0  0  0  0  0  0  0  0  0
   -2.5626   -1.3141   -0.7707 C   0  0  0  0  0  0  0  0  0  0  0  0
   -3.2140   -0.4034    0.2748 C   0  0  0  0  0  0  0  0  0  0  0  0
   -1.1331   -1.7035   -0.4037 C   0  0  0  0  0  0  0  0  0  0  0  0
   -4.6388   -0.0251   -0.1311 C   0  0  0  0  0  0  0  0  0  0  0  0
   -5.3055    0.8459    0.9218 C   0  0  0  0  0  0  0  0  0  0  0  0
    1.0712   -0.5854   -0.0623 C   0  0  0  0  0  0  0  0  0  0  0  0
    1.7735    0.6080   -0.0137 C   0  0  0  0  0  0  0  0  0  0  0  0
    3.1371    0.5504    0.2521 C   0  0  0  0  0  0  0  0  0  0  0  0
    3.7482   -0.6816    0.4582 C   0  0  0  0  0  0  0  0  0  0  0  0
    1.1435    1.9031   -0.2309 C   0  0  0  0  0  0  0  0  0  0  0  0
    2.9576   -1.8173    0.3884 C   0  0  0  0  0  0  0  0  0  0  0  0
   -3.1600   -2.2273   -0.8808 H   0  0  0  0  0  0  0  0  0  0  0  0
   -2.5663   -0.8099   -1.7453 H   0  0  0  0  0  0  0  0  0  0  0  0
   -2.6264    0.5128    0.4051 H   0  0  0  0  0  0  0  0  0  0  0  0
   -3.2304   -0.9163    1.2441 H   0  0  0  0  0  0  0  0  0  0  0  0
   -1.1316   -2.2343    0.5557 H   0  0  0  0  0  0  0  0  0  0  0  0
   -0.7505   -2.3912   -1.1673 H   0  0  0  0  0  0  0  0  0  0  0  0
   -5.2377   -0.9315   -0.2773 H   0  0  0  0  0  0  0  0  0  0  0  0
   -4.6235    0.5118   -1.0867 H   0  0  0  0  0  0  0  0  0  0  0  0
   -0.6280    0.2978   -0.7951 H   0  0  0  0  0  0  0  0  0  0  0  0
   -4.7485    1.7764    1.0711 H   0  0  0  0  0  0  0  0  0  0  0  0
   -6.3225    1.1048    0.6109 H   0  0  0  0  0  0  0  0  0  0  0  0
   -5.3663    0.3237    1.8819 H   0  0  0  0  0  0  0  0  0  0  0  0
    3.7339    1.4574    0.3004 H   0  0  0  0  0  0  0  0  0  0  0  0
    4.8097   -0.7506    0.6666 H   0  0  0  0  0  0  0  0  0  0  0  0
    3.3859   -2.8023    0.5416 H   0  0  0  0  0  0  0  0  0  0  0  0
    0.6939    2.1784    1.8152 H   0  0  0  0  0  0  0  0  0  0  0  0
    0.1778    3.4688    0.7847 H   0  0  0  0  0  0  0  0  0  0  0  0
  1 14  2  0  0  0  0
  2  7  1  0  0  0  0
  2 10  1  0  0  0  0
  2 24  1  0  0  0  0
  3 10  1  0  0  0  0
  3 15  2  0  0  0  0
  4 14  1  0  0  0  0
  4 31  1  0  0  0  0
  4 32  1  0  0  0  0
  5  6  1  0  0  0  0
  5  7  1  0  0  0  0
  5 16  1  0  0  0  0
  5 17  1  0  0  0  0
  6  8  1  0  0  0  0
  6 18  1  0  0  0  0
  6 19  1  0  0  0  0
  7 20  1  0  0  0  0
  7 21  1  0  0  0  0
  8  9  1  0  0  0  0
  8 22  1  0  0  0  0
  8 23  1  0  0  0  0
  9 25  1  0  0  0  0
  9 26  1  0  0  0  0
  9 27  1  0  0  0  0
 10 11  2  0  0  0  0
 11 12  1  0  0  0  0
 11 14  1  0  0  0  0
 12 13  2  0  0  0  0
 12 28  1  0  0  0  0
 13 15  1  0  0  0  0
 13 29  1  0  0  0  0
 15 30  1  0  0  0  0
M  END
>  <PUBCHEM_COMPOUND_CID>
29051520

>  <PUBCHEM_CONFORMER_RMSD>
0.6

>  <PUBCHEM_CONFORMER_DIVERSEORDER>
3
111
128
136
43
117
19
121
80
129
126
48
116
135
94
131
76
144
120
133
138
86
124
130
33
119
132
49
142
125
31
46
40
103
27
110
114
92
79
100
139
84
73
72
123
134
59
141
77
71
137
91
70
104
127
113
83
85
108
50
90
65
140
78
21
30
89
109
39
13
51
81
88
87
53
2
112
11
14
54
35
36
62
122
57
20
24
118
1
67
64
143
107
34
69
52
102
10
32
96
38
82
37
95
4
101
5
58
145
63
41
6
115
98
17
146
74
60
12
18
28
55
7
44
99
8
56
29
42
45
61
9
75
47
68
93
15
106
66
105
23
16
97
22
25
26

>  <PUBCHEM_MMFF94_PARTIAL_CHARGES>
17
1 -0.57
10 0.41
11 0.09
12 -0.15
13 -0.15
14 0.54
15 0.16
2 -0.87
24 0.4
28 0.15
29 0.15
3 -0.62
30 0.15
31 0.37
32 0.37
4 -0.8
7 0.37

>  <PUBCHEM_EFFECTIVE_ROTOR_COUNT>
6

>  <PUBCHEM_PHARMACOPHORE_FEATURES>
7
1 1 acceptor
1 2 cation
1 2 donor
1 3 acceptor
1 4 donor
1 9 hydrophobe
6 3 10 11 12 13 15 rings

>  <PUBCHEM_HEAVY_ATOM_COUNT>
15

>  <PUBCHEM_ATOM_DEF_STEREO_COUNT>
0

>  <PUBCHEM_ATOM_UDEF_STEREO_COUNT>
0

>  <PUBCHEM_BOND_DEF_STEREO_COUNT>
0

>  <PUBCHEM_BOND_UDEF_STEREO_COUNT>
0

>  <PUBCHEM_ISOTOPIC_ATOM_COUNT>
0

>  <PUBCHEM_COMPONENT_COUNT>
1

>  <PUBCHEM_CACTVS_TAUTO_COUNT>
7

>  <PUBCHEM_CONFORMER_ID>
01BB4A8000000003

>  <PUBCHEM_MMFF94_ENERGY>
40.5709

>  <PUBCHEM_FEATURE_SELFOVERLAP>
35.521

>  <PUBCHEM_SHAPE_FINGERPRINT>
10354089 29 18410862053472861987
10382601 240 17751346490435816824
10465860 228 18337391659453797836
10688039 33 17967817090103700277
13922767 16 18411697690752115599
14178342 30 18124010584935106178
15042514 8 17545314182253797834
15442244 35 18412541011680584135
17041 49 18412823607585587383
20233049 118 17560801039310495595
20671657 1 18266742561628837405
21665062 11 18409456877475420505
22094290 62 18412260679217811311
23402539 116 17632286853132184287
23598291 2 18198896105430565471
2748010 2 18192972869220229078
33382 64 15502650430613845578
351380 180 18335700525578046841
7832392 63 18271519904933121958
81228 2 18120661236509561106
84936 182 17840302551331527128
9971528 1 18202282472431856958

>  <PUBCHEM_SHAPE_MULTIPOLES>
287.88
8.4
2.43
0.89
11.51
1.12
0.08
-0.3
-2.19
-1.25
0.19
0.21
0.29
-0.88

>  <PUBCHEM_SHAPE_SELFOVERLAP>
577.804

>  <PUBCHEM_SHAPE_VOLUME>
168.6

>  <PUBCHEM_COORDINATE_TYPE>
2
5
10

$$$$
