29296277
 OpenBabel01182520543D

 24 24  0  0  0  0  0  0  0  0999 V2000
   -1.1631   -2.4326   -1.1131 O   0  0  0  0  0  0  0  0  0  0  0  0
    3.2983   -1.1557   -0.0281 O   0  0  0  0  0  0  0  0  0  0  0  0
    0.8768    0.0456   -0.0110 N   0  0  0  0  0  0  0  0  0  0  0  0
   -0.6211    1.8831    0.0138 N   0  0  0  0  0  0  0  0  0  0  0  0
   -1.1860   -2.4692    1.1796 N   0  0  0  0  0  0  0  0  0  0  0  0
    4.4165    0.8522    0.0249 N   0  0  0  0  0  0  0  0  0  0  0  0
   -0.4512    0.5420   -0.0053 C   0  0  0  0  0  0  0  0  0  0  0  0
   -1.4926   -0.3717   -0.0215 C   0  0  0  0  0  0  0  0  0  0  0  0
    2.0181    0.9010    0.0044 C   0  0  0  0  0  0  0  0  0  0  0  0
   -2.7923    0.1227   -0.0178 C   0  0  0  0  0  0  0  0  0  0  0  0
   -3.0075    1.4964    0.0017 C   0  0  0  0  0  0  0  0  0  0  0  0
   -1.2777   -1.8120   -0.0427 C   0  0  0  0  0  0  0  0  0  0  0  0
   -1.8983    2.3265    0.0168 C   0  0  0  0  0  0  0  0  0  0  0  0
    3.2801    0.0717   -0.0016 C   0  0  0  0  0  0  0  0  0  0  0  0
    0.9984   -0.9064    0.3195 H   0  0  0  0  0  0  0  0  0  0  0  0
    2.0295    1.5493   -0.8795 H   0  0  0  0  0  0  0  0  0  0  0  0
    2.0222    1.5279    0.9038 H   0  0  0  0  0  0  0  0  0  0  0  0
   -3.6447   -0.5514   -0.0302 H   0  0  0  0  0  0  0  0  0  0  0  0
   -4.0117    1.9043    0.0049 H   0  0  0  0  0  0  0  0  0  0  0  0
   -2.0122    3.4053    0.0322 H   0  0  0  0  0  0  0  0  0  0  0  0
   -1.2691   -1.9775    2.0637 H   0  0  0  0  0  0  0  0  0  0  0  0
   -1.0303   -3.4708    1.2231 H   0  0  0  0  0  0  0  0  0  0  0  0
    4.3785    1.8663    0.0460 H   0  0  0  0  0  0  0  0  0  0  0  0
    5.3393    0.4303    0.0241 H   0  0  0  0  0  0  0  0  0  0  0  0
  1 12  2  0  0  0  0
  2 14  2  0  0  0  0
  3  7  1  0  0  0  0
  3  9  1  0  0  0  0
  3 15  1  0  0  0  0
  4  7  1  0  0  0  0
  4 13  2  0  0  0  0
  5 12  1  0  0  0  0
  5 21  1  0  0  0  0
  5 22  1  0  0  0  0
  6 14  1  0  0  0  0
  6 23  1  0  0  0  0
  6 24  1  0  0  0  0
  7  8  2  0  0  0  0
  8 10  1  0  0  0  0
  8 12  1  0  0  0  0
  9 14  1  0  0  0  0
  9 16  1  0  0  0  0
  9 17  1  0  0  0  0
 10 11  2  0  0  0  0
 10 18  1  0  0  0  0
 11 13  1  0  0  0  0
 11 19  1  0  0  0  0
 13 20  1  0  0  0  0
M  END
>  <PUBCHEM_COMPOUND_CID>
29296277

>  <PUBCHEM_CONFORMER_RMSD>
0.6

>  <PUBCHEM_CONFORMER_DIVERSEORDER>
1
51
28
29
40
47
43
21
11
48
41
39
30
26
44
50
9
46
37
23
45
49
17
13
42
27
3
18
33
35
25
4
10
34
12
2
22
19
32
20
36
16
24
15
31
5
7
38
14
6
8

>  <PUBCHEM_MMFF94_PARTIAL_CHARGES>
22
1 -0.57
10 -0.15
11 -0.15
12 0.54
13 0.16
14 0.57
15 0.4
18 0.15
19 0.15
2 -0.57
20 0.15
21 0.37
22 0.37
23 0.37
24 0.37
3 -0.87
4 -0.62
5 -0.8
6 -0.8
7 0.41
8 0.09
9 0.43

>  <PUBCHEM_EFFECTIVE_ROTOR_COUNT>
4

>  <PUBCHEM_PHARMACOPHORE_FEATURES>
8
1 1 acceptor
1 2 acceptor
1 3 cation
1 3 donor
1 4 acceptor
1 5 donor
1 6 donor
6 4 7 8 10 11 13 rings

>  <PUBCHEM_HEAVY_ATOM_COUNT>
14

>  <PUBCHEM_ATOM_DEF_STEREO_COUNT>
0

>  <PUBCHEM_ATOM_UDEF_STEREO_COUNT>
0

>  <PUBCHEM_BOND_DEF_STEREO_COUNT>
0

>  <PUBCHEM_BOND_UDEF_STEREO_COUNT>
0

>  <PUBCHEM_ISOTOPIC_ATOM_COUNT>
0

>  <PUBCHEM_COMPONENT_COUNT>
1

>  <PUBCHEM_CACTVS_TAUTO_COUNT>
14

>  <PUBCHEM_CONFORMER_ID>
01BF069500000001

>  <PUBCHEM_MMFF94_ENERGY>
48.8041

>  <PUBCHEM_FEATURE_SELFOVERLAP>
40.597

>  <PUBCHEM_SHAPE_FINGERPRINT>
12500047 106 18341043056424335568
12716758 59 18411974771576479537
13024252 1 16515401885064864585
13380535 76 18340768135145563198
14144814 61 18409166571982710792
14325111 11 18339079276874939916
15669948 3 18411132567524046086
16945 1 18342726438580111705
20510252 161 18271808977844421969
20524608 308 18343863329086692855
20645476 183 17750538246040745590
20645477 56 18410855456192442880
20871998 184 18342746259785630623
21524375 3 18267019458154456101
23402539 116 18271516568302481685
23419403 2 14042883998317288439
23559900 14 18271803498362450592
257057 1 17694490842826130287
2748010 2 18194412091075330949
3071541 12 17404586571937920685
366044 4 18411135797460973337
43471831 8 18189616038624719979
5706482 22 18339634530367883547
6333449 129 18413386540264408325
69090 78 18412821365523001101
7364860 26 17549542912236409629
81228 2 18265319789250585257
81539 233 17973443205134767853
9709674 26 18342179960069117294

>  <PUBCHEM_SHAPE_MULTIPOLES>
256.45
5.77
2.6
0.73
7.28
1.03
-0.02
-1.71
-0.01
-1.81
-0.05
-0.2
0.37
0.02

>  <PUBCHEM_SHAPE_SELFOVERLAP>
531.544

>  <PUBCHEM_SHAPE_VOLUME>
145

>  <PUBCHEM_COORDINATE_TYPE>
2
5
10

$$$$
