29541399
 OpenBabel01182520543D

 23 23  0  0  0  0  0  0  0  0999 V2000
   -0.6468   -2.4404    1.1157 O   0  0  0  0  0  0  0  0  0  0  0  0
    1.5198   -0.0418    0.0031 N   0  0  0  0  0  0  0  0  0  0  0  0
    0.0958    1.8536   -0.0208 N   0  0  0  0  0  0  0  0  0  0  0  0
   -0.6441   -2.4728   -1.1772 N   0  0  0  0  0  0  0  0  0  0  0  0
    0.2126    0.5070    0.0018 C   0  0  0  0  0  0  0  0  0  0  0  0
    2.6940    0.7675   -0.0188 C   0  0  0  0  0  0  0  0  0  0  0  0
   -0.8643   -0.3647    0.0242 C   0  0  0  0  0  0  0  0  0  0  0  0
   -2.1434    0.1809    0.0234 C   0  0  0  0  0  0  0  0  0  0  0  0
    3.9500   -0.0863    0.0232 C   0  0  0  0  0  0  0  0  0  0  0  0
   -2.3040    1.5619    0.0007 C   0  0  0  0  0  0  0  0  0  0  0  0
   -0.7067   -1.8124    0.0453 C   0  0  0  0  0  0  0  0  0  0  0  0
   -1.1628    2.3473   -0.0207 C   0  0  0  0  0  0  0  0  0  0  0  0
    2.7150    1.3824   -0.9262 H   0  0  0  0  0  0  0  0  0  0  0  0
    2.7042    1.4453    0.8429 H   0  0  0  0  0  0  0  0  0  0  0  0
    1.6039   -0.9996   -0.3211 H   0  0  0  0  0  0  0  0  0  0  0  0
   -3.0218   -0.4589    0.0401 H   0  0  0  0  0  0  0  0  0  0  0  0
    3.9742   -0.7035    0.9276 H   0  0  0  0  0  0  0  0  0  0  0  0
    3.9976   -0.7573   -0.8411 H   0  0  0  0  0  0  0  0  0  0  0  0
    4.8430    0.5462    0.0151 H   0  0  0  0  0  0  0  0  0  0  0  0
   -3.2913    2.0094   -0.0004 H   0  0  0  0  0  0  0  0  0  0  0  0
   -1.2338    3.4298   -0.0389 H   0  0  0  0  0  0  0  0  0  0  0  0
   -0.6981   -1.9770   -2.0613 H   0  0  0  0  0  0  0  0  0  0  0  0
   -0.5409   -3.4812   -1.2208 H   0  0  0  0  0  0  0  0  0  0  0  0
  1 11  2  0  0  0  0
  2  5  1  0  0  0  0
  2  6  1  0  0  0  0
  2 15  1  0  0  0  0
  3  5  1  0  0  0  0
  3 12  2  0  0  0  0
  4 11  1  0  0  0  0
  4 22  1  0  0  0  0
  4 23  1  0  0  0  0
  5  7  2  0  0  0  0
  6  9  1  0  0  0  0
  6 13  1  0  0  0  0
  6 14  1  0  0  0  0
  7  8  1  0  0  0  0
  7 11  1  0  0  0  0
  8 10  2  0  0  0  0
  8 16  1  0  0  0  0
  9 17  1  0  0  0  0
  9 18  1  0  0  0  0
  9 19  1  0  0  0  0
 10 12  1  0  0  0  0
 10 20  1  0  0  0  0
 12 21  1  0  0  0  0
M  END
>  <PUBCHEM_COMPOUND_CID>
29541399

>  <PUBCHEM_CONFORMER_RMSD>
0.6

>  <PUBCHEM_CONFORMER_DIVERSEORDER>
2
10
6
9
8
3
7
4
5
1

>  <PUBCHEM_MMFF94_PARTIAL_CHARGES>
17
1 -0.57
10 -0.15
11 0.54
12 0.16
15 0.4
16 0.15
2 -0.87
20 0.15
21 0.15
22 0.37
23 0.37
3 -0.62
4 -0.8
5 0.41
6 0.37
7 0.09
8 -0.15

>  <PUBCHEM_EFFECTIVE_ROTOR_COUNT>
3

>  <PUBCHEM_PHARMACOPHORE_FEATURES>
6
1 1 acceptor
1 2 cation
1 2 donor
1 3 acceptor
1 4 donor
6 3 5 7 8 10 12 rings

>  <PUBCHEM_HEAVY_ATOM_COUNT>
12

>  <PUBCHEM_ATOM_DEF_STEREO_COUNT>
0

>  <PUBCHEM_ATOM_UDEF_STEREO_COUNT>
0

>  <PUBCHEM_BOND_DEF_STEREO_COUNT>
0

>  <PUBCHEM_BOND_UDEF_STEREO_COUNT>
0

>  <PUBCHEM_ISOTOPIC_ATOM_COUNT>
0

>  <PUBCHEM_COMPONENT_COUNT>
1

>  <PUBCHEM_CACTVS_TAUTO_COUNT>
7

>  <PUBCHEM_CONFORMER_ID>
01C2C41700000002

>  <PUBCHEM_MMFF94_ENERGY>
41.48

>  <PUBCHEM_FEATURE_SELFOVERLAP>
30.446

>  <PUBCHEM_SHAPE_FINGERPRINT>
12716758 59 18411975871446816416
13024252 1 16732701670501721993
13380535 76 18340204081717849654
15669948 3 18410009975005791524
16945 1 18261402164611434073
193761 8 17906172111450909933
20645476 183 17749973097343572054
20871998 184 18270126828122193758
21524375 3 18266455416968176728
23402539 116 18271231790126700725
23552423 10 17688591563595529805
23559900 14 18343584019986724700
257057 1 17766263658951982350
2748010 2 18266467503058875869
43471831 8 18190177888691986635
5706482 22 18267010683272396634
6333449 129 18413666915924669996
6338986 31 17623555854423525990
7364860 26 17549822187847116229
81228 2 18265603467286977952

>  <PUBCHEM_SHAPE_MULTIPOLES>
226.14
4.03
2.74
0.76
5.16
1.22
0.02
-1.52
-0.03
-1.43
0.06
-0.09
0.43
0

>  <PUBCHEM_SHAPE_SELFOVERLAP>
463.048

>  <PUBCHEM_SHAPE_VOLUME>
130.2

>  <PUBCHEM_COORDINATE_TYPE>
2
5
10

$$$$
