29566370
 OpenBabel01182520543D

 30 31  0  0  0  0  0  0  0  0999 V2000
    1.5900    2.5051    1.0311 O   0  0  0  0  0  0  0  0  0  0  0  0
   -0.6978    0.0656    0.3894 N   0  0  0  0  0  0  0  0  0  0  0  0
    0.6747   -1.8225    0.1994 N   0  0  0  0  0  0  0  0  0  0  0  0
    1.1984    2.4577   -1.2279 N   0  0  0  0  0  0  0  0  0  0  0  0
   -1.8872   -0.7305    0.6060 C   0  0  0  0  0  0  0  0  0  0  0  0
   -3.0059    0.1205    1.1938 C   0  0  0  0  0  0  0  0  0  0  0  0
   -2.4774   -1.1901   -0.7215 C   0  0  0  0  0  0  0  0  0  0  0  0
   -3.6114    0.8517   -0.0022 C   0  0  0  0  0  0  0  0  0  0  0  0
   -3.2775    0.0067   -1.2314 C   0  0  0  0  0  0  0  0  0  0  0  0
    0.5603   -0.4754    0.1886 C   0  0  0  0  0  0  0  0  0  0  0  0
    1.6229    0.3918   -0.0082 C   0  0  0  0  0  0  0  0  0  0  0  0
    2.8842   -0.1589   -0.2066 C   0  0  0  0  0  0  0  0  0  0  0  0
    1.4687    1.8400   -0.0114 C   0  0  0  0  0  0  0  0  0  0  0  0
    1.9159   -2.3212    0.0032 C   0  0  0  0  0  0  0  0  0  0  0  0
    3.0420   -1.5404   -0.2023 C   0  0  0  0  0  0  0  0  0  0  0  0
   -1.6717   -1.5726    1.2733 H   0  0  0  0  0  0  0  0  0  0  0  0
   -2.6626    0.8173    1.9654 H   0  0  0  0  0  0  0  0  0  0  0  0
   -3.7680   -0.5289    1.6421 H   0  0  0  0  0  0  0  0  0  0  0  0
   -3.1619   -2.0295   -0.5462 H   0  0  0  0  0  0  0  0  0  0  0  0
   -1.7315   -1.5183   -1.4520 H   0  0  0  0  0  0  0  0  0  0  0  0
   -3.1702    1.8498   -0.1054 H   0  0  0  0  0  0  0  0  0  0  0  0
   -4.6913    0.9841    0.1188 H   0  0  0  0  0  0  0  0  0  0  0  0
   -4.1798   -0.3154   -1.7610 H   0  0  0  0  0  0  0  0  0  0  0  0
   -2.6777    0.5957   -1.9350 H   0  0  0  0  0  0  0  0  0  0  0  0
   -0.8432    1.0199    0.0767 H   0  0  0  0  0  0  0  0  0  0  0  0
    3.7511    0.4772   -0.3647 H   0  0  0  0  0  0  0  0  0  0  0  0
    1.9854   -3.4039    0.0156 H   0  0  0  0  0  0  0  0  0  0  0  0
    4.0156   -1.9919   -0.3548 H   0  0  0  0  0  0  0  0  0  0  0  0
    1.1021    1.9311   -2.0904 H   0  0  0  0  0  0  0  0  0  0  0  0
    1.0872    3.4643   -1.2887 H   0  0  0  0  0  0  0  0  0  0  0  0
  1 13  2  0  0  0  0
  2  5  1  0  0  0  0
  2 10  1  0  0  0  0
  2 25  1  0  0  0  0
  3 10  1  0  0  0  0
  3 14  2  0  0  0  0
  4 13  1  0  0  0  0
  4 29  1  0  0  0  0
  4 30  1  0  0  0  0
  5  6  1  0  0  0  0
  5  7  1  0  0  0  0
  5 16  1  0  0  0  0
  6  8  1  0  0  0  0
  6 17  1  0  0  0  0
  6 18  1  0  0  0  0
  7  9  1  0  0  0  0
  7 19  1  0  0  0  0
  7 20  1  0  0  0  0
  8  9  1  0  0  0  0
  8 21  1  0  0  0  0
  8 22  1  0  0  0  0
  9 23  1  0  0  0  0
  9 24  1  0  0  0  0
 10 11  2  0  0  0  0
 11 12  1  0  0  0  0
 11 13  1  0  0  0  0
 12 15  2  0  0  0  0
 12 26  1  0  0  0  0
 14 15  1  0  0  0  0
 14 27  1  0  0  0  0
 15 28  1  0  0  0  0
M  END
>  <PUBCHEM_COMPOUND_CID>
29566370

>  <PUBCHEM_CONFORMER_RMSD>
0.6

>  <PUBCHEM_CONFORMER_DIVERSEORDER>
1
33
20
18
40
8
39
37
36
35
42
19
14
43
41
29
9
17
32
7
12
27
30
11
26
25
34
28
13
38
10
31
5
21
6
16
22
15
3
2
23
24
4

>  <PUBCHEM_MMFF94_PARTIAL_CHARGES>
17
1 -0.57
10 0.41
11 0.09
12 -0.15
13 0.54
14 0.16
15 -0.15
2 -0.87
25 0.4
26 0.15
27 0.15
28 0.15
29 0.37
3 -0.62
30 0.37
4 -0.8
5 0.37

>  <PUBCHEM_EFFECTIVE_ROTOR_COUNT>
4

>  <PUBCHEM_PHARMACOPHORE_FEATURES>
7
1 1 acceptor
1 2 cation
1 2 donor
1 3 acceptor
1 4 donor
5 5 6 7 8 9 rings
6 3 10 11 12 14 15 rings

>  <PUBCHEM_HEAVY_ATOM_COUNT>
15

>  <PUBCHEM_ATOM_DEF_STEREO_COUNT>
0

>  <PUBCHEM_ATOM_UDEF_STEREO_COUNT>
0

>  <PUBCHEM_BOND_DEF_STEREO_COUNT>
0

>  <PUBCHEM_BOND_UDEF_STEREO_COUNT>
0

>  <PUBCHEM_ISOTOPIC_ATOM_COUNT>
0

>  <PUBCHEM_COMPONENT_COUNT>
1

>  <PUBCHEM_CACTVS_TAUTO_COUNT>
7

>  <PUBCHEM_CONFORMER_ID>
01C325A200000001

>  <PUBCHEM_MMFF94_ENERGY>
49.1119

>  <PUBCHEM_FEATURE_SELFOVERLAP>
35.521

>  <PUBCHEM_SHAPE_FINGERPRINT>
104564 63 18051703135363737708
11471102 20 18408885105416489143
11578080 2 17555981759481699248
116883 192 17622728617957754894
124424 183 17604138251269505794
12654215 9 18334289834378386854
13132413 78 18268438940424508660
13134695 92 18340761551187545292
14144814 61 18342739576885174243
14250199 8 18409726283652012925
14648413 74 18187935031021024689
15775835 57 18200601422411602421
16945 1 18412545405294978050
17357990 137 17487367904829043657
18186145 218 18271251611237163066
18410436 195 18270957930295791184
20339313 130 18341061704818894026
20606313 2 18408602526575239086
21130352 189 18334574594767760589
21524375 3 17539129862753944232
21639500 275 18339635741342958581
2255824 54 18410578426348186342
23402539 116 18342455886185627150
23419403 2 15005495226854519746
23557571 272 14836133130354430617
23598291 2 18202287996012734517
25 1 18333455330559256770
2748010 2 18048889785798161122
305870 269 18268142252699925032
3060560 45 18341607096856579270
3071541 158 18334019380272031020
350125 39 17976271449409537010
6049 1 17967823764392609555
63268167 104 18411423903355388874
6992083 37 17986962834211066675
7364860 26 18343579672350868408
74978 22 18342455950235349671
77492 1 17846781784607149035
7832392 63 18271527485840406953
81228 2 17688881838991755338
84936 182 17987512787398772096
93112 12 18412539916674952903

>  <PUBCHEM_SHAPE_MULTIPOLES>
287.88
5.78
2.43
1.02
3.49
0.97
0.07
-0.71
0.49
-2.15
0.1
0.61
0.26
-0.08

>  <PUBCHEM_SHAPE_SELFOVERLAP>
606.112

>  <PUBCHEM_SHAPE_VOLUME>
162

>  <PUBCHEM_COORDINATE_TYPE>
2
5
10

$$$$
