29788904
 OpenBabel01182520543D

 31 31  0  0  0  0  0  0  0  0999 V2000
   -1.9297   -2.3366    1.2454 O   0  0  0  0  0  0  0  0  0  0  0  0
    4.0503    0.2060   -0.1995 N   0  0  0  0  0  0  0  0  0  0  0  0
    0.3586   -0.1698   -0.0502 N   0  0  0  0  0  0  0  0  0  0  0  0
   -0.8830    1.8155   -0.1431 N   0  0  0  0  0  0  0  0  0  0  0  0
   -1.9951   -2.4953   -1.0412 N   0  0  0  0  0  0  0  0  0  0  0  0
    2.7638   -0.4790   -0.0799 C   0  0  0  0  0  0  0  0  0  0  0  0
    1.6202    0.5254   -0.1421 C   0  0  0  0  0  0  0  0  0  0  0  0
   -0.8726    0.4667   -0.0509 C   0  0  0  0  0  0  0  0  0  0  0  0
    5.0849   -0.7247   -0.6492 C   0  0  0  0  0  0  0  0  0  0  0  0
    4.4275    0.8119    1.0769 C   0  0  0  0  0  0  0  0  0  0  0  0
   -2.0139   -0.3133    0.0427 C   0  0  0  0  0  0  0  0  0  0  0  0
   -3.2453    0.3324    0.0415 C   0  0  0  0  0  0  0  0  0  0  0  0
   -3.2969    1.7188   -0.0519 C   0  0  0  0  0  0  0  0  0  0  0  0
   -1.9704   -1.7657    0.1427 C   0  0  0  0  0  0  0  0  0  0  0  0
   -2.0983    2.4079   -0.1411 C   0  0  0  0  0  0  0  0  0  0  0  0
    2.7076   -1.0911    0.8304 H   0  0  0  0  0  0  0  0  0  0  0  0
    2.6326   -1.1738   -0.9213 H   0  0  0  0  0  0  0  0  0  0  0  0
    1.6669    1.0858   -1.0842 H   0  0  0  0  0  0  0  0  0  0  0  0
    1.6878    1.2447    0.6808 H   0  0  0  0  0  0  0  0  0  0  0  0
    0.3656   -1.1583   -0.2793 H   0  0  0  0  0  0  0  0  0  0  0  0
    4.8370   -1.1324   -1.6357 H   0  0  0  0  0  0  0  0  0  0  0  0
    5.2200   -1.5603    0.0472 H   0  0  0  0  0  0  0  0  0  0  0  0
    6.0456   -0.2091   -0.7594 H   0  0  0  0  0  0  0  0  0  0  0  0
    3.7152    1.5814    1.3889 H   0  0  0  0  0  0  0  0  0  0  0  0
    5.3948    1.3196    0.9844 H   0  0  0  0  0  0  0  0  0  0  0  0
    4.5119    0.0708    1.8804 H   0  0  0  0  0  0  0  0  0  0  0  0
   -4.1708   -0.2330    0.1132 H   0  0  0  0  0  0  0  0  0  0  0  0
   -4.2454    2.2434   -0.0546 H   0  0  0  0  0  0  0  0  0  0  0  0
   -2.0840    3.4902   -0.2158 H   0  0  0  0  0  0  0  0  0  0  0  0
   -2.0351   -2.0461   -1.9506 H   0  0  0  0  0  0  0  0  0  0  0  0
   -1.9730   -3.5095   -1.0297 H   0  0  0  0  0  0  0  0  0  0  0  0
  1 14  2  0  0  0  0
  2  6  1  0  0  0  0
  2  9  1  0  0  0  0
  2 10  1  0  0  0  0
  3  7  1  0  0  0  0
  3  8  1  0  0  0  0
  3 20  1  0  0  0  0
  4  8  1  0  0  0  0
  4 15  2  0  0  0  0
  5 14  1  0  0  0  0
  5 30  1  0  0  0  0
  5 31  1  0  0  0  0
  6  7  1  0  0  0  0
  6 16  1  0  0  0  0
  6 17  1  0  0  0  0
  7 18  1  0  0  0  0
  7 19  1  0  0  0  0
  8 11  2  0  0  0  0
  9 21  1  0  0  0  0
  9 22  1  0  0  0  0
  9 23  1  0  0  0  0
 10 24  1  0  0  0  0
 10 25  1  0  0  0  0
 10 26  1  0  0  0  0
 11 12  1  0  0  0  0
 11 14  1  0  0  0  0
 12 13  2  0  0  0  0
 12 27  1  0  0  0  0
 13 15  1  0  0  0  0
 13 28  1  0  0  0  0
 15 29  1  0  0  0  0
M  END
>  <PUBCHEM_COMPOUND_CID>
29788904

>  <PUBCHEM_CONFORMER_RMSD>
0.6

>  <PUBCHEM_CONFORMER_DIVERSEORDER>
1
48
51
30
45
42
40
35
54
27
50
33
55
36
29
52
28
18
47
13
38
24
39
37
53
6
16
9
46
5
15
8
17
23
32
25
10
44
26
20
7
41
19
34
2
49
14
43
22
3
11
21
12
4
31
56

>  <PUBCHEM_MMFF94_PARTIAL_CHARGES>
21
1 -0.57
10 0.27
11 0.09
12 -0.15
13 -0.15
14 0.54
15 0.16
2 -0.81
20 0.4
27 0.15
28 0.15
29 0.15
3 -0.87
30 0.37
31 0.37
4 -0.62
5 -0.8
6 0.27
7 0.37
8 0.41
9 0.27

>  <PUBCHEM_EFFECTIVE_ROTOR_COUNT>
5

>  <PUBCHEM_PHARMACOPHORE_FEATURES>
7
1 1 acceptor
1 2 cation
1 3 cation
1 3 donor
1 4 acceptor
1 5 donor
6 4 8 11 12 13 15 rings

>  <PUBCHEM_HEAVY_ATOM_COUNT>
15

>  <PUBCHEM_ATOM_DEF_STEREO_COUNT>
0

>  <PUBCHEM_ATOM_UDEF_STEREO_COUNT>
0

>  <PUBCHEM_BOND_DEF_STEREO_COUNT>
0

>  <PUBCHEM_BOND_UDEF_STEREO_COUNT>
0

>  <PUBCHEM_ISOTOPIC_ATOM_COUNT>
0

>  <PUBCHEM_COMPONENT_COUNT>
1

>  <PUBCHEM_CACTVS_TAUTO_COUNT>
7

>  <PUBCHEM_CONFORMER_ID>
01C68AE800000001

>  <PUBCHEM_MMFF94_ENERGY>
51.4782

>  <PUBCHEM_FEATURE_SELFOVERLAP>
35.521

>  <PUBCHEM_SHAPE_FINGERPRINT>
10616163 171 18410015433704074582
10680689 15 18341337759968668806
11405975 8 18342174445636616232
12173636 292 18265890255154434909
12500047 106 18339638937009714324
13024252 1 16370728132376512185
13380535 76 18339643330566137887
14965852 173 18408605889729758748
15042514 8 18336554901741974251
15242439 84 18201440229941086852
15375358 24 18131631158340110884
15669948 3 18408597054781538362
20279233 1 17917717885574977998
20510252 161 18271244898509793585
20524608 308 18413387622727892847
20645476 183 17603865581450317129
20645477 56 18410858715787608484
20645477 70 17060059195226646430
20871998 184 18341620334378029055
22224240 67 18340217285186231737
22943178 12 18202843266912731410
2306618 200 18060427918922604811
23402539 116 18341887494481800597
23557571 272 18342468049290026652
23559900 14 18343018862103524192
3071541 12 17187285665314100053
4175511 318 18040991813381867485
4214541 1 18411419480140499484
559249 180 18191583048095231314
573450 72 18187914072181922786
58051976 100 18334862705875177654
69090 78 18411416172667457021
81228 2 18336256955349334193
8809292 202 18410577292524260512
9709674 26 18342742879825924814

>  <PUBCHEM_SHAPE_MULTIPOLES>
282.9
8.52
2.41
0.85
13.23
0.69
-0.12
-0.79
0.01
-2.93
0
0.25
0.28
0.61

>  <PUBCHEM_SHAPE_SELFOVERLAP>
572.074

>  <PUBCHEM_SHAPE_VOLUME>
165.8

>  <PUBCHEM_COORDINATE_TYPE>
2
5
10

$$$$
