29922307
 OpenBabel01182520543D

 27 27  0  0  0  0  0  0  0  0999 V2000
   -0.6244   -1.5768   -0.8936 O   0  0  0  0  0  0  0  0  0  0  0  0
    3.2043   -0.4207    0.5072 N   0  0  0  0  0  0  0  0  0  0  0  0
    1.6243   -2.1853    0.4076 N   0  0  0  0  0  0  0  0  0  0  0  0
   -2.9015   -0.1737    0.0758 C   0  0  0  0  0  0  0  0  0  0  0  0
   -1.6016    0.5433   -0.2935 C   0  0  0  0  0  0  0  0  0  0  0  0
   -4.0553    0.8150    0.2388 C   0  0  0  0  0  0  0  0  0  0  0  0
   -0.4478   -0.4270   -0.4976 C   0  0  0  0  0  0  0  0  0  0  0  0
    0.9401    0.0381   -0.2055 C   0  0  0  0  0  0  0  0  0  0  0  0
   -5.3573    0.1024    0.5679 C   0  0  0  0  0  0  0  0  0  0  0  0
    1.9405   -0.8145    0.2325 C   0  0  0  0  0  0  0  0  0  0  0  0
    1.2571    1.3818   -0.3725 C   0  0  0  0  0  0  0  0  0  0  0  0
    2.5465    1.8252   -0.1002 C   0  0  0  0  0  0  0  0  0  0  0  0
    3.4751    0.8924    0.3332 C   0  0  0  0  0  0  0  0  0  0  0  0
   -2.7584   -0.7405    1.0042 H   0  0  0  0  0  0  0  0  0  0  0  0
   -3.1550   -0.9043   -0.7025 H   0  0  0  0  0  0  0  0  0  0  0  0
   -1.3525    1.2432    0.5120 H   0  0  0  0  0  0  0  0  0  0  0  0
   -1.7323    1.1093   -1.2227 H   0  0  0  0  0  0  0  0  0  0  0  0
   -4.1859    1.3910   -0.6848 H   0  0  0  0  0  0  0  0  0  0  0  0
   -3.8231    1.5296    1.0370 H   0  0  0  0  0  0  0  0  0  0  0  0
   -5.2708   -0.4604    1.5028 H   0  0  0  0  0  0  0  0  0  0  0  0
   -5.6354   -0.5951   -0.2288 H   0  0  0  0  0  0  0  0  0  0  0  0
   -6.1684    0.8284    0.6820 H   0  0  0  0  0  0  0  0  0  0  0  0
    0.5272    2.1032   -0.7278 H   0  0  0  0  0  0  0  0  0  0  0  0
    2.8175    2.8671   -0.2267 H   0  0  0  0  0  0  0  0  0  0  0  0
    4.4948    1.1871    0.5582 H   0  0  0  0  0  0  0  0  0  0  0  0
    0.6818   -2.4331    0.6820 H   0  0  0  0  0  0  0  0  0  0  0  0
    2.3770   -2.7848    0.7242 H   0  0  0  0  0  0  0  0  0  0  0  0
  1  7  2  0  0  0  0
  2 10  1  0  0  0  0
  2 13  2  0  0  0  0
  3 10  1  0  0  0  0
  3 26  1  0  0  0  0
  3 27  1  0  0  0  0
  4  5  1  0  0  0  0
  4  6  1  0  0  0  0
  4 14  1  0  0  0  0
  4 15  1  0  0  0  0
  5  7  1  0  0  0  0
  5 16  1  0  0  0  0
  5 17  1  0  0  0  0
  6  9  1  0  0  0  0
  6 18  1  0  0  0  0
  6 19  1  0  0  0  0
  7  8  1  0  0  0  0
  8 10  2  0  0  0  0
  8 11  1  0  0  0  0
  9 20  1  0  0  0  0
  9 21  1  0  0  0  0
  9 22  1  0  0  0  0
 11 12  2  0  0  0  0
 11 23  1  0  0  0  0
 12 13  1  0  0  0  0
 12 24  1  0  0  0  0
 13 25  1  0  0  0  0
M  END
>  <PUBCHEM_COMPOUND_CID>
29922307

>  <PUBCHEM_CONFORMER_RMSD>
0.6

>  <PUBCHEM_CONFORMER_DIVERSEORDER>
1
22
16
33
61
35
37
27
58
47
48
21
30
44
29
52
51
6
4
55
53
10
31
9
46
56
2
40
20
32
24
42
49
39
13
59
26
28
17
18
38
23
54
19
12
3
50
60
57
34
7
8
36
25
5
41
11
45
14
15
43

>  <PUBCHEM_MMFF94_PARTIAL_CHARGES>
15
1 -0.57
10 0.41
11 -0.15
12 -0.15
13 0.16
2 -0.62
23 0.15
24 0.15
25 0.15
26 0.4
27 0.4
3 -0.9
5 0.06
7 0.42
8 0.09

>  <PUBCHEM_EFFECTIVE_ROTOR_COUNT>
4

>  <PUBCHEM_PHARMACOPHORE_FEATURES>
6
1 1 acceptor
1 2 acceptor
1 3 cation
1 3 donor
1 9 hydrophobe
6 2 8 10 11 12 13 rings

>  <PUBCHEM_HEAVY_ATOM_COUNT>
13

>  <PUBCHEM_ATOM_DEF_STEREO_COUNT>
0

>  <PUBCHEM_ATOM_UDEF_STEREO_COUNT>
0

>  <PUBCHEM_BOND_DEF_STEREO_COUNT>
0

>  <PUBCHEM_BOND_UDEF_STEREO_COUNT>
0

>  <PUBCHEM_ISOTOPIC_ATOM_COUNT>
0

>  <PUBCHEM_COMPONENT_COUNT>
1

>  <PUBCHEM_CACTVS_TAUTO_COUNT>
9

>  <PUBCHEM_CONFORMER_ID>
01C8940300000001

>  <PUBCHEM_MMFF94_ENERGY>
33.8593

>  <PUBCHEM_FEATURE_SELFOVERLAP>
30.446

>  <PUBCHEM_SHAPE_FINGERPRINT>
10465860 228 17987810583535432913
10498660 4 14907351745902822979
10980938 120 18408880737366092892
11471102 20 18408880733023763332
12251169 10 18408886235288111703
12346645 6 18341895168944832054
14252887 29 17822297855469060665
15775835 57 18271526489197062437
16945 1 18337372886668503948
17844478 74 17676198057184040356
20233049 118 17489867128754921432
20281475 54 8070020061378618605
20559304 39 18412264995512406664
20645477 70 18337384942700089935
20871998 22 18051971425123555206
22485316 2 11314314970666297857
23402539 116 16702295763041411469
2748010 2 17834375849208865406
276578 36 18343302578198582034
4047638 21 17703792548046308680
42 15 18041000626939640473
449060 62 18412548721136408873
7364860 26 18271528602563727846

>  <PUBCHEM_SHAPE_MULTIPOLES>
251.7
8.05
1.68
0.76
10.72
0.35
-0.03
-1.98
2.19
-1.37
-0.04
0.07
0.07
-0.29

>  <PUBCHEM_SHAPE_SELFOVERLAP>
509.111

>  <PUBCHEM_SHAPE_VOLUME>
146.1

>  <PUBCHEM_COORDINATE_TYPE>
2
5
10

$$$$
