29922305
 OpenBabel01182520543D

 21 21  0  0  0  0  0  0  0  0999 V2000
   -1.7873   -1.1781   -0.7264 O   0  0  0  0  0  0  0  0  0  0  0  0
    2.3110   -0.7377    0.2594 N   0  0  0  0  0  0  0  0  0  0  0  0
    0.4678   -2.2285    0.2398 N   0  0  0  0  0  0  0  0  0  0  0  0
    0.0839    0.1171   -0.1326 C   0  0  0  0  0  0  0  0  0  0  0  0
   -2.3371    1.0050    0.1314 C   0  0  0  0  0  0  0  0  0  0  0  0
   -1.3491   -0.1010   -0.2760 C   0  0  0  0  0  0  0  0  0  0  0  0
    0.9776   -0.9113    0.1189 C   0  0  0  0  0  0  0  0  0  0  0  0
    0.5910    1.4067   -0.2474 C   0  0  0  0  0  0  0  0  0  0  0  0
   -3.6822    0.4730    0.6007 C   0  0  0  0  0  0  0  0  0  0  0  0
    1.9571    1.6253   -0.1091 C   0  0  0  0  0  0  0  0  0  0  0  0
    2.7673    0.5294    0.1414 C   0  0  0  0  0  0  0  0  0  0  0  0
   -1.9030    1.5898    0.9499 H   0  0  0  0  0  0  0  0  0  0  0  0
   -2.4808    1.6643   -0.7314 H   0  0  0  0  0  0  0  0  0  0  0  0
   -0.0488    2.2585   -0.4590 H   0  0  0  0  0  0  0  0  0  0  0  0
   -4.1903   -0.0717   -0.2016 H   0  0  0  0  0  0  0  0  0  0  0  0
   -3.5565   -0.2141    1.4438 H   0  0  0  0  0  0  0  0  0  0  0  0
   -4.3295    1.2962    0.9180 H   0  0  0  0  0  0  0  0  0  0  0  0
    2.3755    2.6214   -0.1981 H   0  0  0  0  0  0  0  0  0  0  0  0
    3.8397    0.6464    0.2566 H   0  0  0  0  0  0  0  0  0  0  0  0
   -0.4648   -2.3543    0.6132 H   0  0  0  0  0  0  0  0  0  0  0  0
    1.1458   -2.9595    0.4184 H   0  0  0  0  0  0  0  0  0  0  0  0
  1  6  2  0  0  0  0
  2  7  1  0  0  0  0
  2 11  2  0  0  0  0
  3  7  1  0  0  0  0
  3 20  1  0  0  0  0
  3 21  1  0  0  0  0
  4  6  1  0  0  0  0
  4  7  2  0  0  0  0
  4  8  1  0  0  0  0
  5  6  1  0  0  0  0
  5  9  1  0  0  0  0
  5 12  1  0  0  0  0
  5 13  1  0  0  0  0
  8 10  2  0  0  0  0
  8 14  1  0  0  0  0
  9 15  1  0  0  0  0
  9 16  1  0  0  0  0
  9 17  1  0  0  0  0
 10 11  1  0  0  0  0
 10 18  1  0  0  0  0
 11 19  1  0  0  0  0
M  END
>  <PUBCHEM_COMPOUND_CID>
29922305

>  <PUBCHEM_CONFORMER_RMSD>
0.4

>  <PUBCHEM_CONFORMER_DIVERSEORDER>
1
15
16
13
14
7
8
2
6
5
9
10
4
11
3
12

>  <PUBCHEM_MMFF94_PARTIAL_CHARGES>
15
1 -0.57
10 -0.15
11 0.16
14 0.15
18 0.15
19 0.15
2 -0.62
20 0.4
21 0.4
3 -0.9
4 0.09
5 0.06
6 0.42
7 0.41
8 -0.15

>  <PUBCHEM_EFFECTIVE_ROTOR_COUNT>
2

>  <PUBCHEM_PHARMACOPHORE_FEATURES>
6
1 1 acceptor
1 2 acceptor
1 3 cation
1 3 donor
1 9 hydrophobe
6 2 4 7 8 10 11 rings

>  <PUBCHEM_HEAVY_ATOM_COUNT>
11

>  <PUBCHEM_ATOM_DEF_STEREO_COUNT>
0

>  <PUBCHEM_ATOM_UDEF_STEREO_COUNT>
0

>  <PUBCHEM_BOND_DEF_STEREO_COUNT>
0

>  <PUBCHEM_BOND_UDEF_STEREO_COUNT>
0

>  <PUBCHEM_ISOTOPIC_ATOM_COUNT>
0

>  <PUBCHEM_COMPONENT_COUNT>
1

>  <PUBCHEM_CACTVS_TAUTO_COUNT>
9

>  <PUBCHEM_CONFORMER_ID>
01C8940100000001

>  <PUBCHEM_MMFF94_ENERGY>
35.2488

>  <PUBCHEM_FEATURE_SELFOVERLAP>
30.446

>  <PUBCHEM_SHAPE_FINGERPRINT>
10219947 1 18333733502716607857
10980938 120 18409731716516610329
14325111 11 18410575131992394533
15775835 57 18343308101621814609
161256 15 18194686956086654668
16945 1 18338789018510455700
17844478 74 17821733801741049957
20871998 22 17908988699316423638
21040471 1 18265049326680713132
23235685 24 18335699472504217120
23552423 10 18409162242307295998
2748010 2 18337107964158200388
29004967 10 18041846107883101112
5084963 1 18271518814058700092
528862 383 18335417916091861587
528886 8 18410006650210617520
63268167 104 18411981338581539984

>  <PUBCHEM_SHAPE_MULTIPOLES>
210.54
4.52
1.77
0.69
2.78
0.49
-0.01
-1.17
0.77
-0.56
-0.01
0.17
0.01
-0.31

>  <PUBCHEM_SHAPE_SELFOVERLAP>
433.656

>  <PUBCHEM_SHAPE_VOLUME>
120.5

>  <PUBCHEM_COORDINATE_TYPE>
2
5
10

$$$$
