3031419
 OpenBabel01182520543D

 23 23  0  0  0  0  0  0  0  0999 V2000
    3.4966   -1.3166   -0.0069 O   0  0  0  0  0  0  0  0  0  0  0  0
   -2.5940    0.4902   -0.0098 N   0  0  0  0  0  0  0  0  0  0  0  0
   -0.4036    1.4278   -0.0055 N   0  0  0  0  0  0  0  0  0  0  0  0
    3.7376    0.9638    0.0070 N   0  0  0  0  0  0  0  0  0  0  0  0
   -3.4984   -0.6131   -0.0099 C   0  0  0  0  0  0  0  0  0  0  0  0
   -1.1866    0.3257   -0.0057 C   0  0  0  0  0  0  0  0  0  0  0  0
   -0.6998   -0.9717   -0.0016 C   0  0  0  0  0  0  0  0  0  0  0  0
    1.5175   -0.0399    0.0034 C   0  0  0  0  0  0  0  0  0  0  0  0
    0.6793   -1.1493    0.0031 C   0  0  0  0  0  0  0  0  0  0  0  0
   -4.9418   -0.1398    0.0200 C   0  0  0  0  0  0  0  0  0  0  0  0
    0.9315    1.2158   -0.0010 C   0  0  0  0  0  0  0  0  0  0  0  0
    2.9617   -0.1929    0.0069 C   0  0  0  0  0  0  0  0  0  0  0  0
   -3.3620   -1.2263   -0.9086 H   0  0  0  0  0  0  0  0  0  0  0  0
   -3.3390   -1.2472    0.8704 H   0  0  0  0  0  0  0  0  0  0  0  0
   -2.9380    1.4436   -0.0143 H   0  0  0  0  0  0  0  0  0  0  0  0
   -1.3235   -1.8578   -0.0034 H   0  0  0  0  0  0  0  0  0  0  0  0
    1.0793   -2.1597    0.0060 H   0  0  0  0  0  0  0  0  0  0  0  0
   -5.1397    0.4588    0.9155 H   0  0  0  0  0  0  0  0  0  0  0  0
   -5.1692    0.4804   -0.8535 H   0  0  0  0  0  0  0  0  0  0  0  0
   -5.6254   -0.9944    0.0208 H   0  0  0  0  0  0  0  0  0  0  0  0
    1.4877    2.1446   -0.0020 H   0  0  0  0  0  0  0  0  0  0  0  0
    3.3816    1.9112    0.0134 H   0  0  0  0  0  0  0  0  0  0  0  0
    4.7498    0.8858    0.0026 H   0  0  0  0  0  0  0  0  0  0  0  0
  1 12  2  0  0  0  0
  2  5  1  0  0  0  0
  2  6  1  0  0  0  0
  2 15  1  0  0  0  0
  3  6  2  0  0  0  0
  3 11  1  0  0  0  0
  4 12  1  0  0  0  0
  4 22  1  0  0  0  0
  4 23  1  0  0  0  0
  5 10  1  0  0  0  0
  5 13  1  0  0  0  0
  5 14  1  0  0  0  0
  6  7  1  0  0  0  0
  7  9  2  0  0  0  0
  7 16  1  0  0  0  0
  8  9  1  0  0  0  0
  8 11  2  0  0  0  0
  8 12  1  0  0  0  0
  9 17  1  0  0  0  0
 10 18  1  0  0  0  0
 10 19  1  0  0  0  0
 10 20  1  0  0  0  0
 11 21  1  0  0  0  0
M  END
>  <PUBCHEM_COMPOUND_CID>
3031419

>  <PUBCHEM_CONFORMER_RMSD>
0.6

>  <PUBCHEM_CONFORMER_DIVERSEORDER>
1
10
7
8
9
12
5
6
11
3
2
4

>  <PUBCHEM_MMFF94_PARTIAL_CHARGES>
17
1 -0.57
11 0.16
12 0.54
15 0.4
16 0.15
17 0.15
2 -0.87
21 0.15
22 0.37
23 0.37
3 -0.62
4 -0.8
5 0.37
6 0.41
7 -0.15
8 0.09
9 -0.15

>  <PUBCHEM_EFFECTIVE_ROTOR_COUNT>
3

>  <PUBCHEM_PHARMACOPHORE_FEATURES>
5
1 1 acceptor
1 2 donor
1 4 donor
3 2 3 6 cation
6 3 6 7 8 9 11 rings

>  <PUBCHEM_HEAVY_ATOM_COUNT>
12

>  <PUBCHEM_ATOM_DEF_STEREO_COUNT>
0

>  <PUBCHEM_ATOM_UDEF_STEREO_COUNT>
0

>  <PUBCHEM_BOND_DEF_STEREO_COUNT>
0

>  <PUBCHEM_BOND_UDEF_STEREO_COUNT>
0

>  <PUBCHEM_ISOTOPIC_ATOM_COUNT>
0

>  <PUBCHEM_COMPONENT_COUNT>
1

>  <PUBCHEM_CACTVS_TAUTO_COUNT>
7

>  <PUBCHEM_CONFORMER_ID>
002E417B00000001

>  <PUBCHEM_MMFF94_ENERGY>
36.7721

>  <PUBCHEM_FEATURE_SELFOVERLAP>
25.371

>  <PUBCHEM_SHAPE_FINGERPRINT>
10219947 1 18413673512851823487
11062470 55 18343021107722508529
11401426 45 18411412930104207565
11471102 20 18410289220456632197
11806522 49 18339922714241869919
12032990 46 18410578361754995175
12932764 1 15769483244930814700
13690532 89 18409166593135735323
14252887 29 18130236994691901679
14325111 11 18410856542470495876
14993402 34 18342461460319395639
16945 1 18341603824296694836
193761 8 17689998263873539140
200 152 18202558493606865847
20201158 50 18334579036154536235
20645477 70 18411980226306641503
21293036 1 18334857229311781637
22485316 2 18410008849434358959
23402539 116 18201992227110634103
23402655 69 18340478994459292445
449060 62 18341897432830511696
537710 114 18410017666896989092
8809292 202 18114750429571167715

>  <PUBCHEM_SHAPE_MULTIPOLES>
226.14
7.45
1.31
0.59
5.04
0.05
0
-0.7
-0.03
-0.62
0
0.04
-0.01
0

>  <PUBCHEM_SHAPE_SELFOVERLAP>
463.394

>  <PUBCHEM_SHAPE_VOLUME>
130.2

>  <PUBCHEM_COORDINATE_TYPE>
2
5
10

$$$$
