3031415
 OpenBabel01182520543D

 33 34  0  0  0  0  0  0  0  0999 V2000
    4.6771    1.3364   -0.1440 O   0  0  0  0  0  0  0  0  0  0  0  0
   -1.3236   -0.6396   -0.3425 N   0  0  0  0  0  0  0  0  0  0  0  0
    0.5592    0.8064   -0.5450 N   0  0  0  0  0  0  0  0  0  0  0  0
    4.9959   -0.8228    0.5598 N   0  0  0  0  0  0  0  0  0  0  0  0
   -2.2656    0.3714   -0.7845 C   0  0  0  0  0  0  0  0  0  0  0  0
   -3.5424   -0.2929   -1.3091 C   0  0  0  0  0  0  0  0  0  0  0  0
   -2.5673    1.3452    0.3591 C   0  0  0  0  0  0  0  0  0  0  0  0
   -4.3844   -0.9178   -0.1964 C   0  0  0  0  0  0  0  0  0  0  0  0
   -3.4126    0.7144    1.4658 C   0  0  0  0  0  0  0  0  0  0  0  0
   -4.6871    0.0852    0.9121 C   0  0  0  0  0  0  0  0  0  0  0  0
    0.0367   -0.4187   -0.2296 C   0  0  0  0  0  0  0  0  0  0  0  0
    0.8505   -1.4716    0.2103 C   0  0  0  0  0  0  0  0  0  0  0  0
    2.2204   -1.2650    0.3285 C   0  0  0  0  0  0  0  0  0  0  0  0
    2.7607   -0.0240    0.0104 C   0  0  0  0  0  0  0  0  0  0  0  0
    1.8952    0.9697   -0.4178 C   0  0  0  0  0  0  0  0  0  0  0  0
    4.1873    0.2238    0.1229 C   0  0  0  0  0  0  0  0  0  0  0  0
   -1.8261    0.9293   -1.6215 H   0  0  0  0  0  0  0  0  0  0  0  0
   -3.2948   -1.0619   -2.0509 H   0  0  0  0  0  0  0  0  0  0  0  0
   -4.1489    0.4621   -1.8257 H   0  0  0  0  0  0  0  0  0  0  0  0
   -3.1156    2.2043   -0.0491 H   0  0  0  0  0  0  0  0  0  0  0  0
   -1.6460    1.7465    0.7961 H   0  0  0  0  0  0  0  0  0  0  0  0
   -3.8682   -1.7880    0.2256 H   0  0  0  0  0  0  0  0  0  0  0  0
   -5.3255   -1.2890   -0.6186 H   0  0  0  0  0  0  0  0  0  0  0  0
   -3.6739    1.4787    2.2066 H   0  0  0  0  0  0  0  0  0  0  0  0
   -2.8258   -0.0480    1.9923 H   0  0  0  0  0  0  0  0  0  0  0  0
   -5.3425    0.8734    0.5213 H   0  0  0  0  0  0  0  0  0  0  0  0
   -5.2345   -0.4124    1.7206 H   0  0  0  0  0  0  0  0  0  0  0  0
   -1.6936   -1.4384    0.1617 H   0  0  0  0  0  0  0  0  0  0  0  0
    0.4276   -2.4412    0.4580 H   0  0  0  0  0  0  0  0  0  0  0  0
    2.8090   -2.1073    0.6723 H   0  0  0  0  0  0  0  0  0  0  0  0
    2.2467    1.9620   -0.6831 H   0  0  0  0  0  0  0  0  0  0  0  0
    4.6766   -1.7524    0.8007 H   0  0  0  0  0  0  0  0  0  0  0  0
    5.9959   -0.6748    0.6541 H   0  0  0  0  0  0  0  0  0  0  0  0
  1 16  2  0  0  0  0
  2  5  1  0  0  0  0
  2 11  1  0  0  0  0
  2 28  1  0  0  0  0
  3 11  2  0  0  0  0
  3 15  1  0  0  0  0
  4 16  1  0  0  0  0
  4 32  1  0  0  0  0
  4 33  1  0  0  0  0
  5  6  1  0  0  0  0
  5  7  1  0  0  0  0
  5 17  1  0  0  0  0
  6  8  1  0  0  0  0
  6 18  1  0  0  0  0
  6 19  1  0  0  0  0
  7  9  1  0  0  0  0
  7 20  1  0  0  0  0
  7 21  1  0  0  0  0
  8 10  1  0  0  0  0
  8 22  1  0  0  0  0
  8 23  1  0  0  0  0
  9 10  1  0  0  0  0
  9 24  1  0  0  0  0
  9 25  1  0  0  0  0
 10 26  1  0  0  0  0
 10 27  1  0  0  0  0
 11 12  1  0  0  0  0
 12 13  2  0  0  0  0
 12 29  1  0  0  0  0
 13 14  1  0  0  0  0
 13 30  1  0  0  0  0
 14 15  2  0  0  0  0
 14 16  1  0  0  0  0
 15 31  1  0  0  0  0
M  END
>  <PUBCHEM_COMPOUND_CID>
3031415

>  <PUBCHEM_CONFORMER_RMSD>
0.6

>  <PUBCHEM_CONFORMER_DIVERSEORDER>
3
49
12
43
15
19
50
35
18
41
4
8
9
26
13
5
45
40
29
39
7
17
22
33
20
2
32
30
34
10
25
48
38
6
14
46
37
24
44
31
11
1
23
36
28
16
42
21
27
47

>  <PUBCHEM_MMFF94_PARTIAL_CHARGES>
17
1 -0.57
11 0.41
12 -0.15
13 -0.15
14 0.09
15 0.16
16 0.54
2 -0.87
28 0.4
29 0.15
3 -0.62
30 0.15
31 0.15
32 0.37
33 0.37
4 -0.8
5 0.37

>  <PUBCHEM_EFFECTIVE_ROTOR_COUNT>
4.2

>  <PUBCHEM_PHARMACOPHORE_FEATURES>
6
1 1 acceptor
1 2 donor
1 4 donor
3 2 3 11 cation
6 3 11 12 13 14 15 rings
6 5 6 7 8 9 10 rings

>  <PUBCHEM_HEAVY_ATOM_COUNT>
16

>  <PUBCHEM_ATOM_DEF_STEREO_COUNT>
0

>  <PUBCHEM_ATOM_UDEF_STEREO_COUNT>
0

>  <PUBCHEM_BOND_DEF_STEREO_COUNT>
0

>  <PUBCHEM_BOND_UDEF_STEREO_COUNT>
0

>  <PUBCHEM_ISOTOPIC_ATOM_COUNT>
0

>  <PUBCHEM_COMPONENT_COUNT>
1

>  <PUBCHEM_CACTVS_TAUTO_COUNT>
7

>  <PUBCHEM_CONFORMER_ID>
002E417700000003

>  <PUBCHEM_MMFF94_ENERGY>
39.9933

>  <PUBCHEM_FEATURE_SELFOVERLAP>
30.446

>  <PUBCHEM_SHAPE_FINGERPRINT>
10912923 1 18201434796364280666
11615757 297 18409165523936623093
12236239 1 18272932726362415471
12251169 10 18334018297892792975
124424 183 16153706522489951669
12500047 106 15051726486883206029
12507557 5 18187361047550080949
13760787 5 18334856121637500348
13897977 58 17847065489046302833
14123238 8 18343302582509347668
14144814 61 18411417285069280927
14252887 29 18113621149319074650
14386348 63 17022624165421484483
14943859 89 16415481536728691543
15309172 13 18335420153764710335
17834072 33 18342736346995654806
18186145 218 18412545405722122596
18522853 276 18341895194930965401
19050596 39 18413675716502316857
200 152 18408598180674789287
20279233 1 16587745317739824259
20325693 3 15913330200026115341
204376 136 18187367661752211338
20645477 56 16128656344974568441
20645477 70 17970049085311577863
21119208 17 8862942771068448145
22485316 2 12251900404043327712
22854114 59 18187083961750098860
23402539 116 17489581268932969461
23402655 69 18411128109358627213
23557571 272 16128665171005871665
23559900 14 15357969011340310466
26918003 58 17967819353703822313
2916195 48 16988831805123528218
474 4 18196366138071169392
5104073 3 18187921725318175056
542803 24 17704075105080276328

>  <PUBCHEM_SHAPE_MULTIPOLES>
308.46
10.42
1.32
1.02
3.04
0.02
-0.05
-0.5
-1.62
0.33
-0.08
-1.05
-0.07
-0.81

>  <PUBCHEM_SHAPE_SELFOVERLAP>
641.488

>  <PUBCHEM_SHAPE_VOLUME>
173

>  <PUBCHEM_COORDINATE_TYPE>
2
5
10

$$$$
