3039699
 OpenBabel01182520543D

 30 31  0  0  0  0  0  0  0  0999 V2000
    0.4457    0.9798    1.6255 O   0  0  0  0  0  0  0  0  0  0  0  0
   -0.2001   -1.0862    0.7916 N   0  0  0  0  0  0  0  0  0  0  0  0
    3.8407    0.9027   -0.8429 N   0  0  0  0  0  0  0  0  0  0  0  0
    2.1068    2.2583    0.0386 N   0  0  0  0  0  0  0  0  0  0  0  0
   -1.5039   -1.1155    1.3968 C   0  0  0  0  0  0  0  0  0  0  0  0
   -2.4977   -0.4983    0.4718 C   0  0  0  0  0  0  0  0  0  0  0  0
    1.9797   -0.1340    0.2456 C   0  0  0  0  0  0  0  0  0  0  0  0
    0.6809   -0.0243    0.9585 C   0  0  0  0  0  0  0  0  0  0  0  0
   -2.7548    0.8712    0.5374 C   0  0  0  0  0  0  0  0  0  0  0  0
   -3.1697   -1.2901   -0.4594 C   0  0  0  0  0  0  0  0  0  0  0  0
    2.6580    0.9730   -0.1920 C   0  0  0  0  0  0  0  0  0  0  0  0
    2.4994   -1.3899    0.0280 C   0  0  0  0  0  0  0  0  0  0  0  0
   -3.6841    1.4487   -0.3278 C   0  0  0  0  0  0  0  0  0  0  0  0
   -4.0989   -0.7126   -1.3247 C   0  0  0  0  0  0  0  0  0  0  0  0
   -4.3562    0.6568   -1.2589 C   0  0  0  0  0  0  0  0  0  0  0  0
    3.7146   -1.5029   -0.6383 C   0  0  0  0  0  0  0  0  0  0  0  0
    4.3396   -0.3367   -1.0497 C   0  0  0  0  0  0  0  0  0  0  0  0
   -1.4828   -0.5892    2.3581 H   0  0  0  0  0  0  0  0  0  0  0  0
   -1.7548   -2.1614    1.6054 H   0  0  0  0  0  0  0  0  0  0  0  0
    0.0267   -1.8493    0.1624 H   0  0  0  0  0  0  0  0  0  0  0  0
   -2.2439    1.5009    1.2604 H   0  0  0  0  0  0  0  0  0  0  0  0
   -2.9771   -2.3579   -0.5220 H   0  0  0  0  0  0  0  0  0  0  0  0
    2.0263   -2.3008    0.3795 H   0  0  0  0  0  0  0  0  0  0  0  0
   -3.8854    2.5147   -0.2759 H   0  0  0  0  0  0  0  0  0  0  0  0
   -4.6219   -1.3290   -2.0500 H   0  0  0  0  0  0  0  0  0  0  0  0
   -5.0798    1.1063   -1.9325 H   0  0  0  0  0  0  0  0  0  0  0  0
    4.1626   -2.4725   -0.8231 H   0  0  0  0  0  0  0  0  0  0  0  0
    5.2902   -0.3705   -1.5718 H   0  0  0  0  0  0  0  0  0  0  0  0
    1.0992    2.3560    0.0595 H   0  0  0  0  0  0  0  0  0  0  0  0
    2.6462    3.0469   -0.2977 H   0  0  0  0  0  0  0  0  0  0  0  0
  1  8  2  0  0  0  0
  2  5  1  0  0  0  0
  2  8  1  0  0  0  0
  2 20  1  0  0  0  0
  3 11  1  0  0  0  0
  3 17  2  0  0  0  0
  4 11  1  0  0  0  0
  4 29  1  0  0  0  0
  4 30  1  0  0  0  0
  5  6  1  0  0  0  0
  5 18  1  0  0  0  0
  5 19  1  0  0  0  0
  6  9  2  0  0  0  0
  6 10  1  0  0  0  0
  7  8  1  0  0  0  0
  7 11  2  0  0  0  0
  7 12  1  0  0  0  0
  9 13  1  0  0  0  0
  9 21  1  0  0  0  0
 10 14  2  0  0  0  0
 10 22  1  0  0  0  0
 12 16  2  0  0  0  0
 12 23  1  0  0  0  0
 13 15  2  0  0  0  0
 13 24  1  0  0  0  0
 14 15  1  0  0  0  0
 14 25  1  0  0  0  0
 15 26  1  0  0  0  0
 16 17  1  0  0  0  0
 16 27  1  0  0  0  0
 17 28  1  0  0  0  0
M  END
>  <PUBCHEM_COMPOUND_CID>
3039699

>  <PUBCHEM_CONFORMER_RMSD>
0.6

>  <PUBCHEM_CONFORMER_DIVERSEORDER>
2
16
31
33
39
4
22
26
27
34
9
10
25
14
21
28
37
30
1
8
12
38
29
35
5
19
24
32
13
6
20
17
3
23
36
7
15
11
18

>  <PUBCHEM_MMFF94_PARTIAL_CHARGES>
28
1 -0.57
10 -0.15
11 0.41
12 -0.15
13 -0.15
14 -0.15
15 -0.15
16 -0.15
17 0.16
2 -0.73
20 0.37
21 0.15
22 0.15
23 0.15
24 0.15
25 0.15
26 0.15
27 0.15
28 0.15
29 0.4
3 -0.62
30 0.4
4 -0.9
5 0.44
6 -0.14
7 0.09
8 0.54
9 -0.15

>  <PUBCHEM_EFFECTIVE_ROTOR_COUNT>
4

>  <PUBCHEM_PHARMACOPHORE_FEATURES>
7
1 1 acceptor
1 2 donor
1 3 acceptor
1 4 cation
1 4 donor
6 3 7 11 12 16 17 rings
6 6 9 10 13 14 15 rings

>  <PUBCHEM_HEAVY_ATOM_COUNT>
17

>  <PUBCHEM_ATOM_DEF_STEREO_COUNT>
0

>  <PUBCHEM_ATOM_UDEF_STEREO_COUNT>
0

>  <PUBCHEM_BOND_DEF_STEREO_COUNT>
0

>  <PUBCHEM_BOND_UDEF_STEREO_COUNT>
0

>  <PUBCHEM_ISOTOPIC_ATOM_COUNT>
0

>  <PUBCHEM_COMPONENT_COUNT>
1

>  <PUBCHEM_CACTVS_TAUTO_COUNT>
5

>  <PUBCHEM_CONFORMER_ID>
002E61D300000002

>  <PUBCHEM_MMFF94_ENERGY>
53.4379

>  <PUBCHEM_FEATURE_SELFOVERLAP>
35.52

>  <PUBCHEM_SHAPE_FINGERPRINT>
10498660 4 17313094255333158101
10618630 7 13686299106001295715
11543360 7 18342453785455638671
12346177 29 14979686438055746539
12363563 72 15051730906499596083
12670546 177 18412260640584243999
12707595 3 16343699958547854291
12892183 10 8502374468674557237
13296908 3 13039191394265562771
14123260 362 16877663465725577687
1420 369 13758068619429198893
14250199 8 18337111267056940957
14341114 328 11314319321167436791
15210252 30 17240485788674431348
1798214 20 17632856408423651078
1813 80 14333130809968947243
18186145 218 18186805776750018251
18915474 69 17775284992843666438
19050596 39 8646768897880152887
193927 3 15195570129920333079
19862831 5 18410856542518033811
200 152 18060707165122433802
20361792 2 15123507042946190427
20645477 70 18340499884832553942
20671657 53 16630520748055438307
21065199 12 9079123266975196279
21503847 285 13118289153035737382
21756936 100 12902132915252054518
21864079 5 17531799156954756845
221357 26 18410852153599780925
22646028 28 15554448500401737423
231179 274 16515681134915998694
23402539 116 18259983756500047604
23402655 69 18409453553001921964
23557571 272 17678465387873852395
23559900 14 18410858746675150226
25 1 18040720220856054810
26918003 58 11095889237329105223
2838139 119 15938689443963145806
3082319 5 18343581850004821379
4028521 119 17895188892295467453
5161694 15 18335988596733201574
5281201 14 18335145314290672743
59027123 10 18413670210111643957
5924683 9 8646478610395571685
6049 1 17897464975448043179
633830 44 17895196562790670087
93112 12 18411699898101633103
9882013 296 8718534013287710377

>  <PUBCHEM_SHAPE_MULTIPOLES>
329.04
9.38
1.73
1.32
0.65
0.37
-0.1
0.22
4.91
-0.39
0
0.51
-0.09
0.18

>  <PUBCHEM_SHAPE_SELFOVERLAP>
706.218

>  <PUBCHEM_SHAPE_VOLUME>
180.3

>  <PUBCHEM_COORDINATE_TYPE>
2
5
10

$$$$
