30756025
 OpenBabel01182520543D

 36 37  0  0  0  0  0  0  0  0999 V2000
   -2.4071   -2.5390   -0.7293 O   0  0  0  0  0  0  0  0  0  0  0  0
    0.0633   -0.2527   -0.3676 N   0  0  0  0  0  0  0  0  0  0  0  0
   -1.1344    1.7567   -0.3634 N   0  0  0  0  0  0  0  0  0  0  0  0
   -1.9935   -2.2862    1.5120 N   0  0  0  0  0  0  0  0  0  0  0  0
    1.3145    0.4156   -0.6792 C   0  0  0  0  0  0  0  0  0  0  0  0
    1.8325    1.0964    0.5915 C   0  0  0  0  0  0  0  0  0  0  0  0
    2.2584   -0.5808   -1.3598 C   0  0  0  0  0  0  0  0  0  0  0  0
    3.3048    1.4970    0.5535 C   0  0  0  0  0  0  0  0  0  0  0  0
    3.0845   -1.4505   -0.4128 C   0  0  0  0  0  0  0  0  0  0  0  0
    4.2333    0.3712    1.0056 C   0  0  0  0  0  0  0  0  0  0  0  0
    4.3882   -0.7809    0.0189 C   0  0  0  0  0  0  0  0  0  0  0  0
   -1.1371    0.4130   -0.2149 C   0  0  0  0  0  0  0  0  0  0  0  0
   -2.2667   -0.3324    0.0822 C   0  0  0  0  0  0  0  0  0  0  0  0
   -3.4711    0.3449    0.2371 C   0  0  0  0  0  0  0  0  0  0  0  0
   -2.2374   -1.7801    0.2397 C   0  0  0  0  0  0  0  0  0  0  0  0
   -2.3234    2.3805   -0.2056 C   0  0  0  0  0  0  0  0  0  0  0  0
   -3.5086    1.7273    0.0920 C   0  0  0  0  0  0  0  0  0  0  0  0
    1.1215    1.1916   -1.4330 H   0  0  0  0  0  0  0  0  0  0  0  0
    1.6437    0.4695    1.4733 H   0  0  0  0  0  0  0  0  0  0  0  0
    1.2454    2.0090    0.7576 H   0  0  0  0  0  0  0  0  0  0  0  0
    2.9357   -0.0345   -2.0289 H   0  0  0  0  0  0  0  0  0  0  0  0
    1.6708   -1.2400   -2.0131 H   0  0  0  0  0  0  0  0  0  0  0  0
    3.4426    2.3318    1.2528 H   0  0  0  0  0  0  0  0  0  0  0  0
    3.5907    1.8712   -0.4360 H   0  0  0  0  0  0  0  0  0  0  0  0
    3.3547   -2.3668   -0.9534 H   0  0  0  0  0  0  0  0  0  0  0  0
    2.4984   -1.7664    0.4574 H   0  0  0  0  0  0  0  0  0  0  0  0
    3.8925   -0.0218    1.9717 H   0  0  0  0  0  0  0  0  0  0  0  0
    5.2287    0.7965    1.1858 H   0  0  0  0  0  0  0  0  0  0  0  0
    4.9331   -0.4298   -0.8664 H   0  0  0  0  0  0  0  0  0  0  0  0
    5.0276   -1.5406    0.4859 H   0  0  0  0  0  0  0  0  0  0  0  0
    0.1425   -1.1687    0.0620 H   0  0  0  0  0  0  0  0  0  0  0  0
   -4.3863   -0.1926    0.4710 H   0  0  0  0  0  0  0  0  0  0  0  0
   -2.2989    3.4581   -0.3288 H   0  0  0  0  0  0  0  0  0  0  0  0
   -4.4361    2.2762    0.2084 H   0  0  0  0  0  0  0  0  0  0  0  0
   -1.8443   -1.6813    2.3134 H   0  0  0  0  0  0  0  0  0  0  0  0
   -1.9557   -3.2865    1.6773 H   0  0  0  0  0  0  0  0  0  0  0  0
  1 15  2  0  0  0  0
  2  5  1  0  0  0  0
  2 12  1  0  0  0  0
  2 31  1  0  0  0  0
  3 12  1  0  0  0  0
  3 16  2  0  0  0  0
  4 15  1  0  0  0  0
  4 35  1  0  0  0  0
  4 36  1  0  0  0  0
  5  6  1  0  0  0  0
  5  7  1  0  0  0  0
  5 18  1  0  0  0  0
  6  8  1  0  0  0  0
  6 19  1  0  0  0  0
  6 20  1  0  0  0  0
  7  9  1  0  0  0  0
  7 21  1  0  0  0  0
  7 22  1  0  0  0  0
  8 10  1  0  0  0  0
  8 23  1  0  0  0  0
  8 24  1  0  0  0  0
  9 11  1  0  0  0  0
  9 25  1  0  0  0  0
  9 26  1  0  0  0  0
 10 11  1  0  0  0  0
 10 27  1  0  0  0  0
 10 28  1  0  0  0  0
 11 29  1  0  0  0  0
 11 30  1  0  0  0  0
 12 13  2  0  0  0  0
 13 14  1  0  0  0  0
 13 15  1  0  0  0  0
 14 17  2  0  0  0  0
 14 32  1  0  0  0  0
 16 17  1  0  0  0  0
 16 33  1  0  0  0  0
 17 34  1  0  0  0  0
M  END
>  <PUBCHEM_COMPOUND_CID>
30756025

>  <PUBCHEM_CONFORMER_RMSD>
0.6

>  <PUBCHEM_CONFORMER_DIVERSEORDER>
1
59
83
70
62
81
28
31
48
52
79
91
77
89
34
75
76
10
69
3
96
36
94
55
80
13
82
66
84
41
33
74
39
42
9
95
56
26
47
43
14
71
27
40
45
90
73
93
17
7
67
54
85
18
24
37
6
53
23
60
78
35
11
57
61
72
87
51
88
30
44
15
19
32
92
2
50
38
68
5
12
86
46
58
8
49
29
65
22
20
25
63
21
16
4
64

>  <PUBCHEM_MMFF94_PARTIAL_CHARGES>
17
1 -0.57
12 0.41
13 0.09
14 -0.15
15 0.54
16 0.16
17 -0.15
2 -0.87
3 -0.62
31 0.4
32 0.15
33 0.15
34 0.15
35 0.37
36 0.37
4 -0.8
5 0.37

>  <PUBCHEM_EFFECTIVE_ROTOR_COUNT>
4.4

>  <PUBCHEM_PHARMACOPHORE_FEATURES>
7
1 1 acceptor
1 2 cation
1 2 donor
1 3 acceptor
1 4 donor
6 3 12 13 14 16 17 rings
7 5 6 7 8 9 10 11 rings

>  <PUBCHEM_HEAVY_ATOM_COUNT>
17

>  <PUBCHEM_ATOM_DEF_STEREO_COUNT>
0

>  <PUBCHEM_ATOM_UDEF_STEREO_COUNT>
0

>  <PUBCHEM_BOND_DEF_STEREO_COUNT>
0

>  <PUBCHEM_BOND_UDEF_STEREO_COUNT>
0

>  <PUBCHEM_ISOTOPIC_ATOM_COUNT>
0

>  <PUBCHEM_COMPONENT_COUNT>
1

>  <PUBCHEM_CACTVS_TAUTO_COUNT>
7

>  <PUBCHEM_CONFORMER_ID>
01D54CB900000001

>  <PUBCHEM_MMFF94_ENERGY>
55.0491

>  <PUBCHEM_FEATURE_SELFOVERLAP>
35.521

>  <PUBCHEM_SHAPE_FINGERPRINT>
10366900 7 18271521000439802824
10608611 8 18343016688191046688
10616163 171 18339361976054187750
11615757 297 16415479384934206522
12251169 10 18410009922996997404
12346177 29 18334004004167837631
12500047 106 18337106752982743148
12553582 1 17832724721730591463
12633257 1 18336533942111653088
12670545 47 18272938215077529276
13004483 165 17842537815901100079
13693222 15 18201440345383016238
14178342 30 18259982673936466242
14289901 80 18339078306470469264
14965852 173 18408322189896496836
15042514 8 18335147518416101571
15219456 202 18273213080120826036
15375358 24 18130785616586613070
15653759 3 18411981360446630024
17804303 29 18338806610944368140
17834074 16 18411982446988803968
18186145 218 18057611962180198724
19049666 15 18199193875676265612
200 152 17060046043472686013
20279233 1 18273498957312148382
20361792 2 16298385773095087468
20510252 161 18270963436576259825
20645477 56 18410577249617142757
20645477 70 17346036663236302710
20681677 76 18200581618343839360
21065198 57 18341328920931332912
21065199 12 18341610438783668802
21501502 16 18337956795814695684
21524375 3 18120098286645648101
23402539 116 18341603824866446485
23532345 11 18333729156177848096
23557571 272 18342465871477681396
23559900 14 18269837532716879870
5104073 3 18412258459078461800
6049 1 17987537990535227486
69090 78 18342453708346479575
7615 1 17604158128578430284
81228 2 18334579096389495337
8809292 202 18411141299055415304
9709674 26 18343022172769221534

>  <PUBCHEM_SHAPE_MULTIPOLES>
329.04
7.92
2.46
1.01
4.79
0.59
-0.06
-0.41
-1.17
-2.11
-0.19
0.36
0.29
0.87

>  <PUBCHEM_SHAPE_SELFOVERLAP>
680.674

>  <PUBCHEM_SHAPE_VOLUME>
185.2

>  <PUBCHEM_COORDINATE_TYPE>
2
5
10

$$$$
