30756033
 OpenBabel01182520543D

 37 38  0  0  0  0  0  0  0  0999 V2000
    1.7179   -2.4098    1.4197 O   0  0  0  0  0  0  0  0  0  0  0  0
    0.4061    0.6107    0.6296 N   0  0  0  0  0  0  0  0  0  0  0  0
    2.2901    1.7616   -0.1545 N   0  0  0  0  0  0  0  0  0  0  0  0
    0.9078   -2.5241   -0.7225 N   0  0  0  0  0  0  0  0  0  0  0  0
   -2.8567    1.2452   -0.7821 C   0  0  0  0  0  0  0  0  0  0  0  0
   -3.9998    0.5285   -1.5058 C   0  0  0  0  0  0  0  0  0  0  0  0
   -2.5747    0.6951    0.5943 C   0  0  0  0  0  0  0  0  0  0  0  0
   -3.9016   -0.9824   -1.3324 C   0  0  0  0  0  0  0  0  0  0  0  0
   -3.9299   -1.3683    0.1467 C   0  0  0  0  0  0  0  0  0  0  0  0
   -1.6974    1.5347    1.4749 C   0  0  0  0  0  0  0  0  0  0  0  0
   -3.0793   -0.4808    1.0067 C   0  0  0  0  0  0  0  0  0  0  0  0
   -0.3383    1.8289    0.8517 C   0  0  0  0  0  0  0  0  0  0  0  0
    1.6997    0.5804    0.1354 C   0  0  0  0  0  0  0  0  0  0  0  0
    2.3081   -0.6530   -0.0338 C   0  0  0  0  0  0  0  0  0  0  0  0
    3.6057   -0.6757   -0.5326 C   0  0  0  0  0  0  0  0  0  0  0  0
    1.6445   -1.9098    0.2847 C   0  0  0  0  0  0  0  0  0  0  0  0
    3.5514    1.6999   -0.6374 C   0  0  0  0  0  0  0  0  0  0  0  0
    4.2464    0.5188   -0.8427 C   0  0  0  0  0  0  0  0  0  0  0  0
   -3.1026    2.3118   -0.7176 H   0  0  0  0  0  0  0  0  0  0  0  0
   -1.9503    1.1558   -1.3931 H   0  0  0  0  0  0  0  0  0  0  0  0
   -4.9614    0.8783   -1.1090 H   0  0  0  0  0  0  0  0  0  0  0  0
   -3.9823    0.7879   -2.5704 H   0  0  0  0  0  0  0  0  0  0  0  0
   -2.9696   -1.3406   -1.7881 H   0  0  0  0  0  0  0  0  0  0  0  0
   -4.7246   -1.4779   -1.8596 H   0  0  0  0  0  0  0  0  0  0  0  0
   -3.5923   -2.4058    0.2500 H   0  0  0  0  0  0  0  0  0  0  0  0
   -4.9597   -1.3273    0.5210 H   0  0  0  0  0  0  0  0  0  0  0  0
   -1.5501    1.0508    2.4492 H   0  0  0  0  0  0  0  0  0  0  0  0
   -2.2094    2.4833    1.6790 H   0  0  0  0  0  0  0  0  0  0  0  0
   -2.8705   -0.8372    2.0119 H   0  0  0  0  0  0  0  0  0  0  0  0
   -0.4487    2.3856   -0.0861 H   0  0  0  0  0  0  0  0  0  0  0  0
    0.2191    2.4752    1.5413 H   0  0  0  0  0  0  0  0  0  0  0  0
    0.0867   -0.2133    1.1282 H   0  0  0  0  0  0  0  0  0  0  0  0
    4.1277   -1.6169   -0.6843 H   0  0  0  0  0  0  0  0  0  0  0  0
    4.0064    2.6586   -0.8634 H   0  0  0  0  0  0  0  0  0  0  0  0
    5.2577    0.5253   -1.2328 H   0  0  0  0  0  0  0  0  0  0  0  0
    0.8295   -2.1257   -1.6529 H   0  0  0  0  0  0  0  0  0  0  0  0
    0.4194   -3.3971   -0.5535 H   0  0  0  0  0  0  0  0  0  0  0  0
  1 16  2  0  0  0  0
  2 12  1  0  0  0  0
  2 13  1  0  0  0  0
  2 32  1  0  0  0  0
  3 13  1  0  0  0  0
  3 17  2  0  0  0  0
  4 16  1  0  0  0  0
  4 36  1  0  0  0  0
  4 37  1  0  0  0  0
  5  6  1  0  0  0  0
  5  7  1  0  0  0  0
  5 19  1  0  0  0  0
  5 20  1  0  0  0  0
  6  8  1  0  0  0  0
  6 21  1  0  0  0  0
  6 22  1  0  0  0  0
  7 10  1  0  0  0  0
  7 11  2  0  0  0  0
  8  9  1  0  0  0  0
  8 23  1  0  0  0  0
  8 24  1  0  0  0  0
  9 11  1  0  0  0  0
  9 25  1  0  0  0  0
  9 26  1  0  0  0  0
 10 12  1  0  0  0  0
 10 27  1  0  0  0  0
 10 28  1  0  0  0  0
 11 29  1  0  0  0  0
 12 30  1  0  0  0  0
 12 31  1  0  0  0  0
 13 14  2  0  0  0  0
 14 15  1  0  0  0  0
 14 16  1  0  0  0  0
 15 18  2  0  0  0  0
 15 33  1  0  0  0  0
 17 18  1  0  0  0  0
 17 34  1  0  0  0  0
 18 35  1  0  0  0  0
M  END
>  <PUBCHEM_COMPOUND_CID>
30756033

>  <PUBCHEM_CONFORMER_RMSD>
0.8

>  <PUBCHEM_CONFORMER_DIVERSEORDER>
1
18
15
13
28
2
16
25
23
5
30
12
27
34
24
32
35
29
11
14
10
3
26
21
8
19
9
31
36
7
17
33
22
20
4
6

>  <PUBCHEM_MMFF94_PARTIAL_CHARGES>
23
1 -0.57
10 0.14
11 -0.29
12 0.37
13 0.41
14 0.09
15 -0.15
16 0.54
17 0.16
18 -0.15
2 -0.87
29 0.15
3 -0.62
32 0.4
33 0.15
34 0.15
35 0.15
36 0.37
37 0.37
4 -0.8
5 0.14
7 -0.28
9 0.14

>  <PUBCHEM_EFFECTIVE_ROTOR_COUNT>
5.8

>  <PUBCHEM_PHARMACOPHORE_FEATURES>
7
1 1 acceptor
1 2 cation
1 2 donor
1 3 acceptor
1 4 donor
6 3 13 14 15 17 18 rings
6 5 6 7 8 9 11 rings

>  <PUBCHEM_HEAVY_ATOM_COUNT>
18

>  <PUBCHEM_ATOM_DEF_STEREO_COUNT>
0

>  <PUBCHEM_ATOM_UDEF_STEREO_COUNT>
0

>  <PUBCHEM_BOND_DEF_STEREO_COUNT>
0

>  <PUBCHEM_BOND_UDEF_STEREO_COUNT>
0

>  <PUBCHEM_ISOTOPIC_ATOM_COUNT>
0

>  <PUBCHEM_COMPONENT_COUNT>
1

>  <PUBCHEM_CACTVS_TAUTO_COUNT>
7

>  <PUBCHEM_CONFORMER_ID>
01D54CC100000001

>  <PUBCHEM_MMFF94_ENERGY>
42.7048

>  <PUBCHEM_FEATURE_SELFOVERLAP>
35.521

>  <PUBCHEM_SHAPE_FINGERPRINT>
10616163 171 18272658904890851639
10688039 33 17030238514898158859
10759866 29 18260544537184261158
11370993 70 17967809478999346355
12553582 1 18060135444993383465
12788726 201 17702949098522516697
128620 24 18343021116106994148
13004483 165 16308488906154329098
13583140 156 16661212584553536600
14004511 7 11097854107467871633
14787075 74 17702379744519727352
16752209 62 17346307151639463333
18915474 69 18060420226641413268
192875 21 18119793734356319955
19433438 38 17967812756159373185
200 152 18343019990925834841
20291156 8 17917992806405363725
20645477 70 18410293575558855511
21634736 98 18059292192320531780
21709351 56 18334019363282326052
22393880 68 18336263461939710908
23402539 116 18130516270935572084
23503958 8 15410900673484957815
235170 7 17676477376551281703
23557571 272 16153723028439615137
2871803 45 18410856589941944005
3472631 163 15864059984489585519
4409770 3 14959653774316578025
4921388 177 17386011693513255411
602551 16 15482668004911322836
603831 33 18343864398586452937
633830 44 18196118623511462524

>  <PUBCHEM_SHAPE_MULTIPOLES>
349.62
8.56
2.4
1.34
1.38
0.86
0
0.23
-3.25
-0.89
0.37
0.97
-0.03
-0.66

>  <PUBCHEM_SHAPE_SELFOVERLAP>
726.097

>  <PUBCHEM_SHAPE_VOLUME>
196.5

>  <PUBCHEM_COORDINATE_TYPE>
2
5
10

$$$$
