31076517
 OpenBabel01182520543D

 26 27  0  0  0  0  0  0  0  0999 V2000
   -0.2115   -1.8217   -0.6011 O   0  0  0  0  0  0  0  0  0  0  0  0
   -4.7872    0.1537   -0.8030 O   0  0  0  0  0  0  0  0  0  0  0  0
   -0.5382    0.4829   -0.4330 N   0  0  0  0  0  0  0  0  0  0  0  0
    1.2874    1.9305    0.0467 N   0  0  0  0  0  0  0  0  0  0  0  0
    3.4291    1.0692    0.3668 N   0  0  0  0  0  0  0  0  0  0  0  0
   -4.9481   -0.5423    1.3819 N   0  0  0  0  0  0  0  0  0  0  0  0
   -1.9648    0.4007   -0.7041 C   0  0  0  0  0  0  0  0  0  0  0  0
   -2.7573   -0.0531    0.5141 C   0  0  0  0  0  0  0  0  0  0  0  0
    0.2209   -0.6901   -0.4066 C   0  0  0  0  0  0  0  0  0  0  0  0
    1.6549   -0.4842   -0.1164 C   0  0  0  0  0  0  0  0  0  0  0  0
    0.0373    1.7208   -0.2070 C   0  0  0  0  0  0  0  0  0  0  0  0
    2.1288    0.8072    0.0968 C   0  0  0  0  0  0  0  0  0  0  0  0
    2.5460   -1.5533   -0.0504 C   0  0  0  0  0  0  0  0  0  0  0  0
   -4.2529   -0.1295    0.2652 C   0  0  0  0  0  0  0  0  0  0  0  0
    3.8842   -1.3027    0.2258 C   0  0  0  0  0  0  0  0  0  0  0  0
    4.2714    0.0120    0.4244 C   0  0  0  0  0  0  0  0  0  0  0  0
   -2.1190   -0.3090   -1.5263 H   0  0  0  0  0  0  0  0  0  0  0  0
   -2.3311    1.3756   -1.0471 H   0  0  0  0  0  0  0  0  0  0  0  0
   -2.4180   -1.0423    0.8443 H   0  0  0  0  0  0  0  0  0  0  0  0
   -2.5858    0.6408    1.3465 H   0  0  0  0  0  0  0  0  0  0  0  0
   -0.6653    2.5671   -0.2526 H   0  0  0  0  0  0  0  0  0  0  0  0
    2.2181   -2.5761   -0.2101 H   0  0  0  0  0  0  0  0  0  0  0  0
    4.6031   -2.1120    0.2839 H   0  0  0  0  0  0  0  0  0  0  0  0
    5.3053    0.2588    0.6428 H   0  0  0  0  0  0  0  0  0  0  0  0
   -4.4854   -0.7679    2.2567 H   0  0  0  0  0  0  0  0  0  0  0  0
   -5.9582   -0.6358    1.3626 H   0  0  0  0  0  0  0  0  0  0  0  0
  1  9  2  0  0  0  0
  2 14  2  0  0  0  0
  3  7  1  0  0  0  0
  3  9  1  0  0  0  0
  3 11  1  0  0  0  0
  4 11  2  0  0  0  0
  4 12  1  0  0  0  0
  5 12  1  0  0  0  0
  5 16  2  0  0  0  0
  6 14  1  0  0  0  0
  6 25  1  0  0  0  0
  6 26  1  0  0  0  0
  7  8  1  0  0  0  0
  7 17  1  0  0  0  0
  7 18  1  0  0  0  0
  8 14  1  0  0  0  0
  8 19  1  0  0  0  0
  8 20  1  0  0  0  0
  9 10  1  0  0  0  0
 10 12  2  0  0  0  0
 10 13  1  0  0  0  0
 11 21  1  0  0  0  0
 13 15  2  0  0  0  0
 13 22  1  0  0  0  0
 15 16  1  0  0  0  0
 15 23  1  0  0  0  0
 16 24  1  0  0  0  0
M  END
>  <PUBCHEM_COMPOUND_CID>
31076517

>  <PUBCHEM_CONFORMER_RMSD>
0.6

>  <PUBCHEM_CONFORMER_DIVERSEORDER>
1
19
15
10
17
16
14
5
9
8
4
12
18
2
7
3
13
6
11

>  <PUBCHEM_MMFF94_PARTIAL_CHARGES>
22
1 -0.57
10 0.09
11 0.45
12 0.49
13 -0.15
14 0.57
15 -0.15
16 0.16
2 -0.57
21 0.06
22 0.15
23 0.15
24 0.15
25 0.37
26 0.37
3 -0.42
4 -0.63
5 -0.62
6 -0.8
7 0.3
8 0.06
9 0.54

>  <PUBCHEM_EFFECTIVE_ROTOR_COUNT>
3

>  <PUBCHEM_PHARMACOPHORE_FEATURES>
6
1 1 acceptor
1 2 acceptor
1 5 acceptor
1 6 donor
6 3 4 9 10 11 12 rings
6 5 10 12 13 15 16 rings

>  <PUBCHEM_HEAVY_ATOM_COUNT>
16

>  <PUBCHEM_ATOM_DEF_STEREO_COUNT>
0

>  <PUBCHEM_ATOM_UDEF_STEREO_COUNT>
0

>  <PUBCHEM_BOND_DEF_STEREO_COUNT>
0

>  <PUBCHEM_BOND_UDEF_STEREO_COUNT>
0

>  <PUBCHEM_ISOTOPIC_ATOM_COUNT>
0

>  <PUBCHEM_COMPONENT_COUNT>
1

>  <PUBCHEM_CACTVS_TAUTO_COUNT>
2

>  <PUBCHEM_CONFORMER_ID>
01DA30A500000001

>  <PUBCHEM_MMFF94_ENERGY>
35.8524

>  <PUBCHEM_FEATURE_SELFOVERLAP>
30.483

>  <PUBCHEM_SHAPE_FINGERPRINT>
10219947 1 18413671300964680703
11132069 177 18412537730183184231
11471102 20 18411414020867742772
11796584 16 16805597023812563875
12032990 46 18336828589573465214
12236239 1 17489582373098117757
12251169 10 18413672426288427087
13140716 1 18196079170099805920
13675066 3 18335416885299749365
13862211 1 18339916035441552918
14251717 144 18413386531811506967
14252887 29 18271530810134661302
15375462 189 18334849507251006746
16945 1 18341035368701686796
17844478 74 18186515480137419412
200 152 18202272599045725133
20261772 1 18343582962343575743
20645477 70 18339632357098965095
20871998 22 18199193888635202598
21267235 1 18411142394752422534
21501925 9 18410009914311954776
21637258 2 16081355350753339170
22854114 59 18342175561668768843
23184049 59 18342457040813937230
23402539 116 18130776850426473847
23557571 272 17168133499459960756
23559900 14 17531247219091708482
26918003 58 18408608067763279937
2748010 2 18124300620076647068
33824 294 18408038498801499418
465052 167 18334583446695734491
4990 188 11891335326647714720
5104073 3 18266733589684769344
537710 114 18410858772070511468
69090 78 18342450461029879111

>  <PUBCHEM_SHAPE_MULTIPOLES>
297.61
9.01
1.62
0.84
7.89
0.19
-0.09
-1.71
-2.19
-1.17
0.08
0.68
-0.08
0.38

>  <PUBCHEM_SHAPE_SELFOVERLAP>
636.151

>  <PUBCHEM_SHAPE_VOLUME>
162.3

>  <PUBCHEM_COORDINATE_TYPE>
2
5
10

$$$$
