3149352
 OpenBabel01182520543D

 18 18  0  0  0  0  0  0  0  0999 V2000
    2.1616    1.6242   -0.0003 O   0  0  0  0  0  0  0  0  0  0  0  0
    1.5365   -0.8840   -0.0001 N   0  0  0  0  0  0  0  0  0  0  0  0
   -0.7708   -1.4282   -0.0009 N   0  0  0  0  0  0  0  0  0  0  0  0
    0.1810   -0.4683   -0.0006 C   0  0  0  0  0  0  0  0  0  0  0  0
   -0.0879    0.8909   -0.0001 C   0  0  0  0  0  0  0  0  0  0  0  0
   -1.4196    1.2906    0.0007 C   0  0  0  0  0  0  0  0  0  0  0  0
   -2.4273    0.3324    0.0006 C   0  0  0  0  0  0  0  0  0  0  0  0
   -2.0537   -1.0017   -0.0003 C   0  0  0  0  0  0  0  0  0  0  0  0
    1.9199   -2.2578    0.0011 C   0  0  0  0  0  0  0  0  0  0  0  0
    0.9603    1.9020    0.0000 C   0  0  0  0  0  0  0  0  0  0  0  0
    2.2170   -0.2236   -0.3579 H   0  0  0  0  0  0  0  0  0  0  0  0
   -1.6895    2.3433    0.0012 H   0  0  0  0  0  0  0  0  0  0  0  0
   -3.4723    0.6208    0.0011 H   0  0  0  0  0  0  0  0  0  0  0  0
    1.5414   -2.7750    0.8888 H   0  0  0  0  0  0  0  0  0  0  0  0
    3.0113   -2.3403    0.0111 H   0  0  0  0  0  0  0  0  0  0  0  0
    1.5549   -2.7733   -0.8933 H   0  0  0  0  0  0  0  0  0  0  0  0
   -2.8015   -1.7879   -0.0005 H   0  0  0  0  0  0  0  0  0  0  0  0
    0.6332    2.9557    0.0002 H   0  0  0  0  0  0  0  0  0  0  0  0
  1 10  2  0  0  0  0
  2  4  1  0  0  0  0
  2  9  1  0  0  0  0
  2 11  1  0  0  0  0
  3  4  1  0  0  0  0
  3  8  2  0  0  0  0
  4  5  2  0  0  0  0
  5  6  1  0  0  0  0
  5 10  1  0  0  0  0
  6  7  2  0  0  0  0
  6 12  1  0  0  0  0
  7  8  1  0  0  0  0
  7 13  1  0  0  0  0
  8 17  1  0  0  0  0
  9 14  1  0  0  0  0
  9 15  1  0  0  0  0
  9 16  1  0  0  0  0
 10 18  1  0  0  0  0
M  END
>  <PUBCHEM_COMPOUND_CID>
3149352

>  <PUBCHEM_CONFORMER_RMSD>
0.4

>  <PUBCHEM_CONFORMER_DIVERSEORDER>
1
7
8
2
6
5
3
4

>  <PUBCHEM_MMFF94_PARTIAL_CHARGES>
15
1 -0.57
10 0.42
11 0.4
12 0.15
13 0.15
17 0.15
18 0.06
2 -0.87
3 -0.62
4 0.41
5 0.09
6 -0.15
7 -0.15
8 0.16
9 0.37

>  <PUBCHEM_EFFECTIVE_ROTOR_COUNT>
2

>  <PUBCHEM_PHARMACOPHORE_FEATURES>
5
1 1 acceptor
1 2 cation
1 2 donor
1 3 acceptor
6 3 4 5 6 7 8 rings

>  <PUBCHEM_HEAVY_ATOM_COUNT>
10

>  <PUBCHEM_ATOM_DEF_STEREO_COUNT>
0

>  <PUBCHEM_ATOM_UDEF_STEREO_COUNT>
0

>  <PUBCHEM_BOND_DEF_STEREO_COUNT>
0

>  <PUBCHEM_BOND_UDEF_STEREO_COUNT>
0

>  <PUBCHEM_ISOTOPIC_ATOM_COUNT>
0

>  <PUBCHEM_COMPONENT_COUNT>
1

>  <PUBCHEM_CACTVS_TAUTO_COUNT>
5

>  <PUBCHEM_CONFORMER_ID>
00300E2800000001

>  <PUBCHEM_MMFF94_ENERGY>
35.6658

>  <PUBCHEM_FEATURE_SELFOVERLAP>
25.371

>  <PUBCHEM_SHAPE_FINGERPRINT>
12423570 1 13012777186460312861
16945 1 18338516455722843845
18185500 45 18120938295827257675
193761 8 18410856555645515621
20871998 184 16758329367064032036
21040471 1 17762056944564885024
23552423 10 18335987544492483855
241688 4 18050565140596718833
2748010 2 18266173942033573245

>  <PUBCHEM_SHAPE_MULTIPOLES>
189.96
3.02
2.36
0.59
0.06
0.34
0
-0.84
0
-1.27
0
0.03
0
0

>  <PUBCHEM_SHAPE_SELFOVERLAP>
392.244

>  <PUBCHEM_SHAPE_VOLUME>
108.1

>  <PUBCHEM_COORDINATE_TYPE>
2
5
10

$$$$
