31535273
 OpenBabel01182520543D

 32 32  0  0  1  0  0  0  0  0999 V2000
    1.2788   -2.6415   -0.6022 O   0  0  0  0  0  0  0  0  0  0  0  0
   -0.3605    0.2838   -1.2403 N   0  0  0  0  0  0  0  0  0  0  0  0
    1.1937    1.8577   -0.4249 N   0  0  0  0  0  0  0  0  0  0  0  0
   -0.1126   -2.1888    1.1633 N   0  0  0  0  0  0  0  0  0  0  0  0
   -1.6372    0.9153   -1.0085 C   0  0  0  0  0  0  0  0  0  0  0  0
   -2.3987    0.2034    0.1064 C   0  0  0  0  0  0  0  0  0  0  0  0
   -3.7816    0.8101    0.3571 C   0  0  0  0  0  0  0  0  0  0  0  0
    0.7566    0.5785   -0.4457 C   0  0  0  0  0  0  0  0  0  0  0  0
   -0.2475   -0.6893   -2.3283 C   0  0  0  0  0  0  0  0  0  0  0  0
   -4.5406    0.0393    1.4263 C   0  0  0  0  0  0  0  0  0  0  0  0
    1.3445   -0.4537    0.2675 C   0  0  0  0  0  0  0  0  0  0  0  0
    2.4523   -0.1540    1.0527 C   0  0  0  0  0  0  0  0  0  0  0  0
    0.8485   -1.8225    0.2272 C   0  0  0  0  0  0  0  0  0  0  0  0
    2.9316    1.1505    1.0999 C   0  0  0  0  0  0  0  0  0  0  0  0
    2.2727    2.1109    0.3495 C   0  0  0  0  0  0  0  0  0  0  0  0
   -1.5055    1.9744   -0.7542 H   0  0  0  0  0  0  0  0  0  0  0  0
   -2.2399    0.8992   -1.9251 H   0  0  0  0  0  0  0  0  0  0  0  0
   -1.8193    0.2472    1.0366 H   0  0  0  0  0  0  0  0  0  0  0  0
   -2.5099   -0.8583   -0.1477 H   0  0  0  0  0  0  0  0  0  0  0  0
   -4.3642    0.8029   -0.5713 H   0  0  0  0  0  0  0  0  0  0  0  0
   -3.6769    1.8561    0.6675 H   0  0  0  0  0  0  0  0  0  0  0  0
   -0.7319   -0.2995   -3.2306 H   0  0  0  0  0  0  0  0  0  0  0  0
   -0.7465   -1.6264   -2.0628 H   0  0  0  0  0  0  0  0  0  0  0  0
    0.7954   -0.8922   -2.5955 H   0  0  0  0  0  0  0  0  0  0  0  0
   -3.9974    0.0496    2.3767 H   0  0  0  0  0  0  0  0  0  0  0  0
   -5.5242    0.4900    1.5919 H   0  0  0  0  0  0  0  0  0  0  0  0
   -4.6904   -1.0029    1.1269 H   0  0  0  0  0  0  0  0  0  0  0  0
    2.9501   -0.9272    1.6319 H   0  0  0  0  0  0  0  0  0  0  0  0
    3.7934    1.4073    1.7050 H   0  0  0  0  0  0  0  0  0  0  0  0
    2.6069    3.1432    0.3519 H   0  0  0  0  0  0  0  0  0  0  0  0
   -0.4641   -1.5387    1.8590 H   0  0  0  0  0  0  0  0  0  0  0  0
   -0.4902   -3.1302    1.1820 H   0  0  0  0  0  0  0  0  0  0  0  0
  1 13  2  0  0  0  0
  2  5  1  0  0  0  0
  2  8  1  0  0  0  0
  2  9  1  0  0  0  0
  3  8  1  0  0  0  0
  3 15  2  0  0  0  0
  4 13  1  0  0  0  0
  4 31  1  0  0  0  0
  4 32  1  0  0  0  0
  5  6  1  0  0  0  0
  5 16  1  0  0  0  0
  5 17  1  0  0  0  0
  6  7  1  0  0  0  0
  6 18  1  0  0  0  0
  6 19  1  0  0  0  0
  7 10  1  0  0  0  0
  7 20  1  0  0  0  0
  7 21  1  0  0  0  0
  8 11  2  0  0  0  0
  9 22  1  0  0  0  0
  9 23  1  0  0  0  0
  9 24  1  0  0  0  0
 10 25  1  0  0  0  0
 10 26  1  0  0  0  0
 10 27  1  0  0  0  0
 11 12  1  0  0  0  0
 11 13  1  0  0  0  0
 12 14  2  0  0  0  0
 12 28  1  0  0  0  0
 14 15  1  0  0  0  0
 14 29  1  0  0  0  0
 15 30  1  0  0  0  0
M  END
>  <PUBCHEM_COMPOUND_CID>
31535273

>  <PUBCHEM_CONFORMER_RMSD>
0.6

>  <PUBCHEM_CONFORMER_DIVERSEORDER>
17
62
79
88
2
16
90
74
49
73
83
6
94
91
64
82
78
89
98
7
57
35
31
40
24
75
39
54
93
27
96
26
3
14
50
63
66
47
92
8
68
33
30
48
42
69
37
20
34
43
60
36
99
44
38
59
71
52
86
53
85
56
45
58
80
70
28
19
41
84
77
61
25
9
13
51
23
21
46
67
32
12
97
4
5
29
81
1
15
76
55
22
87
95
65
11
10
72
18

>  <PUBCHEM_MMFF94_PARTIAL_CHARGES>
17
1 -0.57
11 0.09
12 -0.15
13 0.54
14 -0.15
15 0.16
2 -0.84
28 0.15
29 0.15
3 -0.62
30 0.15
31 0.37
32 0.37
4 -0.8
5 0.37
8 0.41
9 0.37

>  <PUBCHEM_EFFECTIVE_ROTOR_COUNT>
5

>  <PUBCHEM_PHARMACOPHORE_FEATURES>
6
1 1 acceptor
1 10 hydrophobe
1 2 cation
1 3 acceptor
1 4 donor
6 3 8 11 12 14 15 rings

>  <PUBCHEM_HEAVY_ATOM_COUNT>
15

>  <PUBCHEM_ATOM_DEF_STEREO_COUNT>
0

>  <PUBCHEM_ATOM_UDEF_STEREO_COUNT>
0

>  <PUBCHEM_BOND_DEF_STEREO_COUNT>
0

>  <PUBCHEM_BOND_UDEF_STEREO_COUNT>
0

>  <PUBCHEM_ISOTOPIC_ATOM_COUNT>
0

>  <PUBCHEM_COMPONENT_COUNT>
1

>  <PUBCHEM_CACTVS_TAUTO_COUNT>
2

>  <PUBCHEM_CONFORMER_ID>
01E130A900000011

>  <PUBCHEM_MMFF94_ENERGY>
56.6232

>  <PUBCHEM_FEATURE_SELFOVERLAP>
30.446

>  <PUBCHEM_SHAPE_FINGERPRINT>
10498660 4 15123514666856253457
11067466 332 17822301140781457646
11471102 22 18187353316403219776
12035758 1 18410012113947524050
12202030 40 17024863750042335047
12423570 1 16379800258425117566
12491281 212 17487882613662459488
14617773 55 17836620278447525878
14817 1 14975960291580078982
15775835 57 17775278400169379673
15906896 17 17770494553920638118
16945 1 18199169733707422828
17357990 137 17203601571355303385
19049666 15 17681819718825106693
20539784 86 18411421670252028145
21041028 32 17984981497188734512
21524375 3 17916581071892836173
21730867 7 18334864879075771441
21731228 192 18267579281039331385
21756936 100 18054229014421624424
23419403 2 16162223318542940492
251288 83 18113904900733746089
2748010 2 17477454549247939092
276578 36 18060701701502072585
298252 57 16988284295150468980
430814 3 18059845199123761517
568465 68 18187909656365068888
576247 118 17481430378524672158
81228 2 17469582462404423978

>  <PUBCHEM_SHAPE_MULTIPOLES>
287.88
5.5
2.23
1.59
7.08
0.98
-0.61
-2.37
3.34
-1.63
0.12
0.47
0.33
0.22

>  <PUBCHEM_SHAPE_SELFOVERLAP>
581.737

>  <PUBCHEM_SHAPE_VOLUME>
168.8

>  <PUBCHEM_COORDINATE_TYPE>
2
5
10

$$$$
