31535244
 OpenBabel01182520543D

 33 34  0  0  1  0  0  0  0  0999 V2000
   -0.5768    2.5669   -0.7233 O   0  0  0  0  0  0  0  0  0  0  0  0
    0.5461   -0.5371    0.1437 N   0  0  0  0  0  0  0  0  0  0  0  0
   -1.3797   -1.8381   -0.2408 N   0  0  0  0  0  0  0  0  0  0  0  0
   -0.8449    2.3031    1.5387 N   0  0  0  0  0  0  0  0  0  0  0  0
    2.7552    0.2771   -0.6071 C   0  0  2  0  0  0  0  0  0  0  0  0
    3.4061   -0.5186    0.5289 C   0  0  0  0  0  0  0  0  0  0  0  0
    1.4180   -0.3554   -1.0236 C   0  0  0  0  0  0  0  0  0  0  0  0
    2.4449   -0.6424    1.7056 C   0  0  0  0  0  0  0  0  0  0  0  0
    1.1206   -1.2702    1.2799 C   0  0  0  0  0  0  0  0  0  0  0  0
    3.6989    0.3812   -1.8034 C   0  0  0  0  0  0  0  0  0  0  0  0
   -0.8400   -0.6153   -0.0377 C   0  0  0  0  0  0  0  0  0  0  0  0
   -1.5736    0.5596    0.0008 C   0  0  0  0  0  0  0  0  0  0  0  0
   -2.9496    0.4741   -0.1807 C   0  0  0  0  0  0  0  0  0  0  0  0
   -0.9636    1.8630    0.2247 C   0  0  0  0  0  0  0  0  0  0  0  0
   -2.7200   -1.8817   -0.4134 C   0  0  0  0  0  0  0  0  0  0  0  0
   -3.5415   -0.7662   -0.3924 C   0  0  0  0  0  0  0  0  0  0  0  0
    2.5558    1.2940   -0.2422 H   0  0  0  0  0  0  0  0  0  0  0  0
    4.3258   -0.0218    0.8596 H   0  0  0  0  0  0  0  0  0  0  0  0
    3.6887   -1.5192    0.1783 H   0  0  0  0  0  0  0  0  0  0  0  0
    0.9328    0.2916   -1.7651 H   0  0  0  0  0  0  0  0  0  0  0  0
    1.5833   -1.3285   -1.5036 H   0  0  0  0  0  0  0  0  0  0  0  0
    2.9021   -1.2454    2.4979 H   0  0  0  0  0  0  0  0  0  0  0  0
    2.2581    0.3538    2.1263 H   0  0  0  0  0  0  0  0  0  0  0  0
    1.2707   -2.3208    1.0020 H   0  0  0  0  0  0  0  0  0  0  0  0
    0.4347   -1.2498    2.1360 H   0  0  0  0  0  0  0  0  0  0  0  0
    3.9362   -0.6074   -2.2110 H   0  0  0  0  0  0  0  0  0  0  0  0
    4.6389    0.8635   -1.5156 H   0  0  0  0  0  0  0  0  0  0  0  0
    3.2472    0.9778   -2.6030 H   0  0  0  0  0  0  0  0  0  0  0  0
   -3.5706    1.3657   -0.1593 H   0  0  0  0  0  0  0  0  0  0  0  0
   -3.1323   -2.8723   -0.5748 H   0  0  0  0  0  0  0  0  0  0  0  0
   -4.6120   -0.8569   -0.5364 H   0  0  0  0  0  0  0  0  0  0  0  0
   -1.1602    1.7439    2.3250 H   0  0  0  0  0  0  0  0  0  0  0  0
   -0.4328    3.2054    1.7517 H   0  0  0  0  0  0  0  0  0  0  0  0
  1 14  2  0  0  0  0
  2  7  1  0  0  0  0
  2  9  1  0  0  0  0
  2 11  1  0  0  0  0
  3 11  1  0  0  0  0
  3 15  2  0  0  0  0
  4 14  1  0  0  0  0
  4 32  1  0  0  0  0
  4 33  1  0  0  0  0
  5  6  1  0  0  0  0
  5  7  1  0  0  0  0
  5 10  1  0  0  0  0
  5 17  1  1  0  0  0
  6  8  1  0  0  0  0
  6 18  1  0  0  0  0
  6 19  1  0  0  0  0
  7 20  1  0  0  0  0
  7 21  1  0  0  0  0
  8  9  1  0  0  0  0
  8 22  1  0  0  0  0
  8 23  1  0  0  0  0
  9 24  1  0  0  0  0
  9 25  1  0  0  0  0
 10 26  1  0  0  0  0
 10 27  1  0  0  0  0
 10 28  1  0  0  0  0
 11 12  2  0  0  0  0
 12 13  1  0  0  0  0
 12 14  1  0  0  0  0
 13 16  2  0  0  0  0
 13 29  1  0  0  0  0
 15 16  1  0  0  0  0
 15 30  1  0  0  0  0
 16 31  1  0  0  0  0
M  END
>  <PUBCHEM_COMPOUND_CID>
31535244

>  <PUBCHEM_CONFORMER_RMSD>
0.6

>  <PUBCHEM_CONFORMER_DIVERSEORDER>
1
21
14
10
20
17
22
15
7
19
16
6
8
11
9
18
2
3
13
4
12
5

>  <PUBCHEM_MMFF94_PARTIAL_CHARGES>
17
1 -0.57
11 0.41
12 0.09
13 -0.15
14 0.54
15 0.16
16 -0.15
2 -0.84
29 0.15
3 -0.62
30 0.15
31 0.15
32 0.37
33 0.37
4 -0.8
7 0.37
9 0.37

>  <PUBCHEM_EFFECTIVE_ROTOR_COUNT>
3.2

>  <PUBCHEM_PHARMACOPHORE_FEATURES>
6
1 1 acceptor
1 2 cation
1 3 acceptor
1 4 donor
6 2 5 6 7 8 9 rings
6 3 11 12 13 15 16 rings

>  <PUBCHEM_HEAVY_ATOM_COUNT>
16

>  <PUBCHEM_ATOM_DEF_STEREO_COUNT>
1

>  <PUBCHEM_ATOM_UDEF_STEREO_COUNT>
0

>  <PUBCHEM_BOND_DEF_STEREO_COUNT>
0

>  <PUBCHEM_BOND_UDEF_STEREO_COUNT>
0

>  <PUBCHEM_ISOTOPIC_ATOM_COUNT>
0

>  <PUBCHEM_COMPONENT_COUNT>
1

>  <PUBCHEM_CACTVS_TAUTO_COUNT>
2

>  <PUBCHEM_CONFORMER_ID>
01E1308C00000001

>  <PUBCHEM_MMFF94_ENERGY>
57.7933

>  <PUBCHEM_FEATURE_SELFOVERLAP>
30.446

>  <PUBCHEM_SHAPE_FINGERPRINT>
10465860 71 18270125732921253799
11132069 177 18272080587370333099
11578080 2 17608890417802867764
12236239 1 18040711463517997110
13538477 17 18334007268284998994
14181834 199 17624665227496400837
14614273 12 18195238915308683053
15375462 189 18187366562467300755
15775835 57 17967822630283977188
16752209 62 18338789010200076525
16945 1 18272653424243530681
17844478 74 17060618888882752328
18175812 5 17274819185743668855
19786989 88 16342837976186970946
19868273 325 18412258462925009263
20300324 65 18340785809542667516
20510252 161 18271802380705570273
20905425 154 17548980408716916183
22112679 90 18407759226820822725
22802520 49 17058938732294901152
228727 97 18260839223400759310
23236772 104 18041289806623423984
23402539 116 18342728615954509814
23419403 2 17693888181626507293
23557571 272 18130785689854258272
23559900 14 18201439143282680174
2748010 2 18125424548350608577
350125 39 17693948388588228305
5262128 65 18126315092734894492
537710 114 18334853922608924381
5902787 121 18266733778436729547
6786 2 14752047862841455416
6992083 37 17467900883950439138
7364860 26 17626099012149746201
77492 1 18040429984230468914
81228 2 18271251529896587313
84936 31 16342004610586928496

>  <PUBCHEM_SHAPE_MULTIPOLES>
308.46
5.75
2.11
1.4
1.54
1.07
0.18
-1.25
-1.51
-1.37
0.3
1.35
0.13
-0.98

>  <PUBCHEM_SHAPE_SELFOVERLAP>
643.704

>  <PUBCHEM_SHAPE_VOLUME>
173.6

>  <PUBCHEM_COORDINATE_TYPE>
2
5
10

$$$$
