31535175
 OpenBabel01182520543D

 30 31  0  0  0  0  0  0  0  0999 V2000
   -0.4734   -2.5071   -0.9306 O   0  0  0  0  0  0  0  0  0  0  0  0
    0.8030    0.4961   -0.0175 N   0  0  0  0  0  0  0  0  0  0  0  0
   -1.1151    1.8610   -0.1016 N   0  0  0  0  0  0  0  0  0  0  0  0
   -0.5013   -2.3955    1.3595 N   0  0  0  0  0  0  0  0  0  0  0  0
    3.6850    0.3585   -0.0824 C   0  0  0  0  0  0  0  0  0  0  0  0
    2.9229    0.4400    1.2345 C   0  0  0  0  0  0  0  0  0  0  0  0
    2.8332   -0.3319   -1.1408 C   0  0  0  0  0  0  0  0  0  0  0  0
    1.5705    1.1295    1.0610 C   0  0  0  0  0  0  0  0  0  0  0  0
    1.4847    0.3636   -1.3131 C   0  0  0  0  0  0  0  0  0  0  0  0
   -0.5919    0.6164   -0.0321 C   0  0  0  0  0  0  0  0  0  0  0  0
   -1.3504   -0.5416    0.0261 C   0  0  0  0  0  0  0  0  0  0  0  0
   -2.7350   -0.4142    0.0118 C   0  0  0  0  0  0  0  0  0  0  0  0
   -0.7574   -1.8699    0.0975 C   0  0  0  0  0  0  0  0  0  0  0  0
   -2.4643    1.9454   -0.1134 C   0  0  0  0  0  0  0  0  0  0  0  0
   -3.3105    0.8497   -0.0590 C   0  0  0  0  0  0  0  0  0  0  0  0
    3.9523    1.3671   -0.4201 H   0  0  0  0  0  0  0  0  0  0  0  0
    4.6201   -0.1938    0.0618 H   0  0  0  0  0  0  0  0  0  0  0  0
    2.7655   -0.5744    1.6227 H   0  0  0  0  0  0  0  0  0  0  0  0
    3.5200    0.9793    1.9783 H   0  0  0  0  0  0  0  0  0  0  0  0
    3.3671   -0.3460   -2.0975 H   0  0  0  0  0  0  0  0  0  0  0  0
    2.6693   -1.3767   -0.8479 H   0  0  0  0  0  0  0  0  0  0  0  0
    1.0200    1.0655    2.0077 H   0  0  0  0  0  0  0  0  0  0  0  0
    1.7140    2.1930    0.8338 H   0  0  0  0  0  0  0  0  0  0  0  0
    1.6262    1.3592   -1.7518 H   0  0  0  0  0  0  0  0  0  0  0  0
    0.8781   -0.2180   -2.0179 H   0  0  0  0  0  0  0  0  0  0  0  0
   -3.3754   -1.2911    0.0546 H   0  0  0  0  0  0  0  0  0  0  0  0
   -2.8632    2.9529   -0.1695 H   0  0  0  0  0  0  0  0  0  0  0  0
   -4.3874    0.9731   -0.0715 H   0  0  0  0  0  0  0  0  0  0  0  0
   -0.7181   -1.8855    2.2100 H   0  0  0  0  0  0  0  0  0  0  0  0
   -0.0829   -3.3134    1.4675 H   0  0  0  0  0  0  0  0  0  0  0  0
  1 13  2  0  0  0  0
  2  8  1  0  0  0  0
  2  9  1  0  0  0  0
  2 10  1  0  0  0  0
  3 10  1  0  0  0  0
  3 14  2  0  0  0  0
  4 13  1  0  0  0  0
  4 29  1  0  0  0  0
  4 30  1  0  0  0  0
  5  6  1  0  0  0  0
  5  7  1  0  0  0  0
  5 16  1  0  0  0  0
  5 17  1  0  0  0  0
  6  8  1  0  0  0  0
  6 18  1  0  0  0  0
  6 19  1  0  0  0  0
  7  9  1  0  0  0  0
  7 20  1  0  0  0  0
  7 21  1  0  0  0  0
  8 22  1  0  0  0  0
  8 23  1  0  0  0  0
  9 24  1  0  0  0  0
  9 25  1  0  0  0  0
 10 11  2  0  0  0  0
 11 12  1  0  0  0  0
 11 13  1  0  0  0  0
 12 15  2  0  0  0  0
 12 26  1  0  0  0  0
 14 15  1  0  0  0  0
 14 27  1  0  0  0  0
 15 28  1  0  0  0  0
M  END
>  <PUBCHEM_COMPOUND_CID>
31535175

>  <PUBCHEM_CONFORMER_RMSD>
0.6

>  <PUBCHEM_CONFORMER_DIVERSEORDER>
1
3
9
10
8
4
7
5
6
2
12
11

>  <PUBCHEM_MMFF94_PARTIAL_CHARGES>
17
1 -0.57
10 0.41
11 0.09
12 -0.15
13 0.54
14 0.16
15 -0.15
2 -0.84
26 0.15
27 0.15
28 0.15
29 0.37
3 -0.62
30 0.37
4 -0.8
8 0.37
9 0.37

>  <PUBCHEM_EFFECTIVE_ROTOR_COUNT>
3.2

>  <PUBCHEM_PHARMACOPHORE_FEATURES>
6
1 1 acceptor
1 2 cation
1 3 acceptor
1 4 donor
6 2 5 6 7 8 9 rings
6 3 10 11 12 14 15 rings

>  <PUBCHEM_HEAVY_ATOM_COUNT>
15

>  <PUBCHEM_ATOM_DEF_STEREO_COUNT>
0

>  <PUBCHEM_ATOM_UDEF_STEREO_COUNT>
0

>  <PUBCHEM_BOND_DEF_STEREO_COUNT>
0

>  <PUBCHEM_BOND_UDEF_STEREO_COUNT>
0

>  <PUBCHEM_ISOTOPIC_ATOM_COUNT>
0

>  <PUBCHEM_COMPONENT_COUNT>
1

>  <PUBCHEM_CACTVS_TAUTO_COUNT>
2

>  <PUBCHEM_CONFORMER_ID>
01E1304700000001

>  <PUBCHEM_MMFF94_ENERGY>
53.7162

>  <PUBCHEM_FEATURE_SELFOVERLAP>
30.446

>  <PUBCHEM_SHAPE_FINGERPRINT>
12138202 97 18343297098026060420
12423570 1 11036817257930409739
12500047 106 18412822495579395948
12716758 59 18412547612960772688
13538477 17 17749391537017243154
13581323 91 18335135423065411880
14181834 199 17614538368874747591
14817 1 8695389718598538574
14993402 34 17894914026851575132
15207287 21 17989484121684364710
15219456 202 17917990598670951800
15279308 132 18341896277146471658
15309172 13 18261399909980522161
15669948 3 18264208174462776948
15775835 57 18410291372045408513
16945 1 18411135861405253007
18186145 218 18059299755467919320
19049666 15 18130796603155173572
20201158 50 17846784000915574004
20510252 161 18343022194307595489
20524608 308 18272365425090502934
20645476 183 17603592953568347827
20871998 184 18269279134743132911
21524375 3 18337669715905520687
22344851 341 17975988565688782579
23402539 116 18270666649755925581
23419403 2 13970831940196922743
23526113 38 17845386470165739046
23559900 14 18271812285838982758
257057 1 17405972433156169679
2748010 2 18266750090669395695
276578 36 18262805047001322601
305870 269 18189893106811646609
43471831 8 18261387802536462083
465052 167 17606141673926265243
53812653 166 18271810068702421497
69090 78 17917423259297695647
7364860 26 17838331887492354951
77492 1 17385724703260816932
81228 2 18194114355410368931
81539 233 17970343724779126037

>  <PUBCHEM_SHAPE_MULTIPOLES>
287.88
5.16
2.19
1.15
1.76
1.19
-0.05
-1.73
0.1
-1.35
-0.2
0.8
0.21
0.4

>  <PUBCHEM_SHAPE_SELFOVERLAP>
603.121

>  <PUBCHEM_SHAPE_VOLUME>
161.3

>  <PUBCHEM_COORDINATE_TYPE>
2
5
10

$$$$
