31535245
 OpenBabel01182520543D

 33 34  0  0  1  0  0  0  0  0999 V2000
    0.5108   -2.5411    0.7174 O   0  0  0  0  0  0  0  0  0  0  0  0
   -0.5398    0.5530   -0.1797 N   0  0  0  0  0  0  0  0  0  0  0  0
    1.3935    1.8361    0.2270 N   0  0  0  0  0  0  0  0  0  0  0  0
    0.8399   -2.3114   -1.5402 N   0  0  0  0  0  0  0  0  0  0  0  0
   -2.7254   -0.2717    0.6266 C   0  0  1  0  0  0  0  0  0  0  0  0
   -3.4071    0.5129   -0.4995 C   0  0  0  0  0  0  0  0  0  0  0  0
   -1.3883    0.3799    1.0090 C   0  0  0  0  0  0  0  0  0  0  0  0
   -2.4732    0.6368   -1.6978 C   0  0  0  0  0  0  0  0  0  0  0  0
   -1.1394    1.2708   -1.3093 C   0  0  0  0  0  0  0  0  0  0  0  0
   -3.6436   -0.3763    1.8426 C   0  0  0  0  0  0  0  0  0  0  0  0
    0.8444    0.6181    0.0203 C   0  0  0  0  0  0  0  0  0  0  0  0
    1.5668   -0.5640   -0.0058 C   0  0  0  0  0  0  0  0  0  0  0  0
    2.9411   -0.4914    0.1929 C   0  0  0  0  0  0  0  0  0  0  0  0
    0.9461   -1.8627   -0.2281 C   0  0  0  0  0  0  0  0  0  0  0  0
    2.7317    1.8672    0.4162 C   0  0  0  0  0  0  0  0  0  0  0  0
    3.5425    0.7437    0.4085 C   0  0  0  0  0  0  0  0  0  0  0  0
   -2.5236   -1.2887    0.2637 H   0  0  0  0  0  0  0  0  0  0  0  0
   -3.6890    1.5137   -0.1485 H   0  0  0  0  0  0  0  0  0  0  0  0
   -4.3303    0.0078   -0.8069 H   0  0  0  0  0  0  0  0  0  0  0  0
   -1.5549    1.3589    1.4768 H   0  0  0  0  0  0  0  0  0  0  0  0
   -0.8860   -0.2508    1.7534 H   0  0  0  0  0  0  0  0  0  0  0  0
   -2.2927   -0.3606   -2.1185 H   0  0  0  0  0  0  0  0  0  0  0  0
   -2.9511    1.2341   -2.4823 H   0  0  0  0  0  0  0  0  0  0  0  0
   -0.4704    1.2407   -2.1780 H   0  0  0  0  0  0  0  0  0  0  0  0
   -1.2841    2.3244   -1.0404 H   0  0  0  0  0  0  0  0  0  0  0  0
   -3.8818    0.6127    2.2485 H   0  0  0  0  0  0  0  0  0  0  0  0
   -3.1701   -0.9633    2.6366 H   0  0  0  0  0  0  0  0  0  0  0  0
   -4.5847   -0.8693    1.5772 H   0  0  0  0  0  0  0  0  0  0  0  0
    3.5535   -1.3891    0.1826 H   0  0  0  0  0  0  0  0  0  0  0  0
    3.1518    2.8541    0.5802 H   0  0  0  0  0  0  0  0  0  0  0  0
    4.6119    0.8243    0.5658 H   0  0  0  0  0  0  0  0  0  0  0  0
    1.1815   -1.7665   -2.3256 H   0  0  0  0  0  0  0  0  0  0  0  0
    0.4101   -3.2054   -1.7529 H   0  0  0  0  0  0  0  0  0  0  0  0
  1 14  2  0  0  0  0
  2  7  1  0  0  0  0
  2  9  1  0  0  0  0
  2 11  1  0  0  0  0
  3 11  1  0  0  0  0
  3 15  2  0  0  0  0
  4 14  1  0  0  0  0
  4 32  1  0  0  0  0
  4 33  1  0  0  0  0
  5  6  1  0  0  0  0
  5  7  1  0  0  0  0
  5 10  1  0  0  0  0
  5 17  1  6  0  0  0
  6  8  1  0  0  0  0
  6 18  1  0  0  0  0
  6 19  1  0  0  0  0
  7 20  1  0  0  0  0
  7 21  1  0  0  0  0
  8  9  1  0  0  0  0
  8 22  1  0  0  0  0
  8 23  1  0  0  0  0
  9 24  1  0  0  0  0
  9 25  1  0  0  0  0
 10 26  1  0  0  0  0
 10 27  1  0  0  0  0
 10 28  1  0  0  0  0
 11 12  2  0  0  0  0
 12 13  1  0  0  0  0
 12 14  1  0  0  0  0
 13 16  2  0  0  0  0
 13 29  1  0  0  0  0
 15 16  1  0  0  0  0
 15 30  1  0  0  0  0
 16 31  1  0  0  0  0
M  END
>  <PUBCHEM_COMPOUND_CID>
31535245

>  <PUBCHEM_CONFORMER_RMSD>
0.6

>  <PUBCHEM_CONFORMER_DIVERSEORDER>
1
21
15
23
10
12
8
16
24
5
17
20
22
18
11
9
7
13
19
2
3
4
14
6

>  <PUBCHEM_MMFF94_PARTIAL_CHARGES>
17
1 -0.57
11 0.41
12 0.09
13 -0.15
14 0.54
15 0.16
16 -0.15
2 -0.84
29 0.15
3 -0.62
30 0.15
31 0.15
32 0.37
33 0.37
4 -0.8
7 0.37
9 0.37

>  <PUBCHEM_EFFECTIVE_ROTOR_COUNT>
3.2

>  <PUBCHEM_PHARMACOPHORE_FEATURES>
6
1 1 acceptor
1 2 cation
1 3 acceptor
1 4 donor
6 2 5 6 7 8 9 rings
6 3 11 12 13 15 16 rings

>  <PUBCHEM_HEAVY_ATOM_COUNT>
16

>  <PUBCHEM_ATOM_DEF_STEREO_COUNT>
1

>  <PUBCHEM_ATOM_UDEF_STEREO_COUNT>
0

>  <PUBCHEM_BOND_DEF_STEREO_COUNT>
0

>  <PUBCHEM_BOND_UDEF_STEREO_COUNT>
0

>  <PUBCHEM_ISOTOPIC_ATOM_COUNT>
0

>  <PUBCHEM_COMPONENT_COUNT>
1

>  <PUBCHEM_CACTVS_TAUTO_COUNT>
2

>  <PUBCHEM_CONFORMER_ID>
01E1308D00000001

>  <PUBCHEM_MMFF94_ENERGY>
57.7841

>  <PUBCHEM_FEATURE_SELFOVERLAP>
30.446

>  <PUBCHEM_SHAPE_FINGERPRINT>
107287 299 18409450267156612340
11067466 332 18115047237058612534
11132069 177 18340200886098631690
11471102 22 18409166601778385072
12326174 3 18269832021677792046
12491281 212 16630245912971611592
13538477 17 16630513030173390813
13583140 156 17025684183612829688
15219456 202 18187642488082546497
15279307 12 17418088815281868575
15309172 13 18412262878119832080
15375358 24 18040709247847492613
15502708 68 18412827988388971426
15775835 57 18340477958691640084
15852999 172 17024009485558516351
16945 1 18272935998737150406
18175812 5 18040431109432694909
18186145 218 18131071571335883408
18380122 1 18186805781261224065
19049666 15 17898565376482403437
19422 9 16988843882133727253
200 152 18201143413156630557
20201158 50 18188766150379772321
20279233 1 18040434369850747729
204376 136 18268987755898950344
20645477 70 18270108016455393103
21061003 4 18410298007923257769
21160774 45 18124303067870525639
23236772 104 17274819181670195577
23402539 116 17240751918006623383
23419403 2 15654316969865164258
23557571 272 17313111817522898815
23559900 14 17240754026814427898
2748010 2 18334847304038356884
458136 41 18340505438061217686
474 4 17201055235859998752
568465 68 18408608084210172985
576247 118 17409676266902292319
633830 44 17774455965456128064
77492 1 17275099535433822389
81228 2 17545866591971807178
8272917 22 18058735693756012165

>  <PUBCHEM_SHAPE_MULTIPOLES>
308.46
5.72
2.1
1.41
1.4
1.05
-0.16
-1.26
1.51
-1.33
-0.32
1.37
0.14
0.99

>  <PUBCHEM_SHAPE_SELFOVERLAP>
643.781

>  <PUBCHEM_SHAPE_VOLUME>
173.8

>  <PUBCHEM_COORDINATE_TYPE>
2
5
10

$$$$
