325987
 OpenBabel01182520543D

 16 16  0  0  0  0  0  0  0  0999 V2000
    1.2417   -1.6773    0.4440 O   0  0  0  0  0  0  0  0  0  0  0  0
   -2.2926    1.4600    0.1908 N   0  0  0  0  0  0  0  0  0  0  0  0
    1.7848    0.4962   -0.1426 N   0  0  0  0  0  0  0  0  0  0  0  0
    4.2975    0.4411   -0.1662 N   0  0  0  0  0  0  0  0  0  0  0  0
   -0.5435   -0.2036    0.0566 C   0  0  0  0  0  0  0  0  0  0  0  0
   -1.4874   -1.1834   -0.2307 C   0  0  0  0  0  0  0  0  0  0  0  0
   -0.9935    1.0914    0.2573 C   0  0  0  0  0  0  0  0  0  0  0  0
    0.8697   -0.5278    0.1436 C   0  0  0  0  0  0  0  0  0  0  0  0
   -2.8334   -0.8430   -0.3075 C   0  0  0  0  0  0  0  0  0  0  0  0
   -3.1810    0.4806   -0.0905 C   0  0  0  0  0  0  0  0  0  0  0  0
    3.1378    0.4657   -0.1548 C   0  0  0  0  0  0  0  0  0  0  0  0
   -1.1929   -2.2154   -0.4013 H   0  0  0  0  0  0  0  0  0  0  0  0
   -0.3306    1.9109    0.5144 H   0  0  0  0  0  0  0  0  0  0  0  0
   -3.5866   -1.5898   -0.5311 H   0  0  0  0  0  0  0  0  0  0  0  0
   -4.2175    0.7977   -0.1395 H   0  0  0  0  0  0  0  0  0  0  0  0
    1.4200    1.3970   -0.4389 H   0  0  0  0  0  0  0  0  0  0  0  0
  1  8  2  0  0  0  0
  2  7  1  0  0  0  0
  2 10  2  0  0  0  0
  3  8  1  0  0  0  0
  3 11  1  0  0  0  0
  3 16  1  0  0  0  0
  4 11  3  0  0  0  0
  5  6  1  0  0  0  0
  5  7  2  0  0  0  0
  5  8  1  0  0  0  0
  6  9  2  0  0  0  0
  6 12  1  0  0  0  0
  7 13  1  0  0  0  0
  9 10  1  0  0  0  0
  9 14  1  0  0  0  0
 10 15  1  0  0  0  0
M  END
>  <PUBCHEM_COMPOUND_CID>
325987

>  <PUBCHEM_CONFORMER_RMSD>
0.4

>  <PUBCHEM_CONFORMER_DIVERSEORDER>
3
6
2
5
4
1

>  <PUBCHEM_MMFF94_PARTIAL_CHARGES>
16
1 -0.57
10 0.16
11 0.6
12 0.15
13 0.15
14 0.15
15 0.15
16 0.37
2 -0.62
3 -0.47
4 -0.56
5 0.09
6 -0.15
7 0.16
8 0.54
9 -0.15

>  <PUBCHEM_EFFECTIVE_ROTOR_COUNT>
2

>  <PUBCHEM_PHARMACOPHORE_FEATURES>
5
1 1 acceptor
1 2 acceptor
1 3 donor
1 4 acceptor
6 2 5 6 7 9 10 rings

>  <PUBCHEM_HEAVY_ATOM_COUNT>
11

>  <PUBCHEM_ATOM_DEF_STEREO_COUNT>
0

>  <PUBCHEM_ATOM_UDEF_STEREO_COUNT>
0

>  <PUBCHEM_BOND_DEF_STEREO_COUNT>
0

>  <PUBCHEM_BOND_UDEF_STEREO_COUNT>
0

>  <PUBCHEM_ISOTOPIC_ATOM_COUNT>
0

>  <PUBCHEM_COMPONENT_COUNT>
1

>  <PUBCHEM_CACTVS_TAUTO_COUNT>
2

>  <PUBCHEM_CONFORMER_ID>
0004F96300000003

>  <PUBCHEM_MMFF94_ENERGY>
25.7692

>  <PUBCHEM_FEATURE_SELFOVERLAP>
25.373

>  <PUBCHEM_SHAPE_FINGERPRINT>
11062470 55 15719386243915968501
12346645 44 18408040710714522170
12897270 3 18413105086772791325
12932764 1 17489012816852226035
13024252 1 16008466547383726681
13380535 76 18408040701919320522
14325111 11 18410293614424440724
14390081 3 18412824681169220792
14897335 6 18337667525192514446
15775835 57 18410296873882852641
16945 1 18340475755610689915
20871998 184 18059297672894220823
23402539 116 18271517680192583166
23402655 69 18269258094516099293
23552423 10 18265046925731041979
369184 2 15864066576947872921
6333449 129 18344144808574518597
7364860 26 18197779903855405534

>  <PUBCHEM_SHAPE_MULTIPOLES>
205.56
5.95
1.39
0.63
4.86
0.13
0
-1.16
0.65
-0.53
-0.11
-0.03
0.03
-0.28

>  <PUBCHEM_SHAPE_SELFOVERLAP>
427.312

>  <PUBCHEM_SHAPE_VOLUME>
113.7

>  <PUBCHEM_COORDINATE_TYPE>
2
5
10

$$$$
