33734963
 OpenBabel01182520543D

 24 24  0  0  0  0  0  0  0  0999 V2000
    3.6479    1.4542   -0.2153 O   0  0  0  0  0  0  0  0  0  0  0  0
    0.8015   -1.7244    1.0859 O   0  0  0  0  0  0  0  0  0  0  0  0
    1.4801   -0.3718   -0.6711 N   0  0  0  0  0  0  0  0  0  0  0  0
   -2.4370    1.4173    0.0554 N   0  0  0  0  0  0  0  0  0  0  0  0
   -0.1478    1.8705    0.4728 N   0  0  0  0  0  0  0  0  0  0  0  0
    2.8692   -0.7709   -0.6633 C   0  0  0  0  0  0  0  0  0  0  0  0
   -0.8395   -0.3972    0.0642 C   0  0  0  0  0  0  0  0  0  0  0  0
    0.5258   -0.8815    0.2155 C   0  0  0  0  0  0  0  0  0  0  0  0
    3.6981    0.1123    0.2513 C   0  0  0  0  0  0  0  0  0  0  0  0
   -1.1789    0.9404    0.1877 C   0  0  0  0  0  0  0  0  0  0  0  0
   -1.8566   -1.3039   -0.2130 C   0  0  0  0  0  0  0  0  0  0  0  0
   -3.1636   -0.8516   -0.3561 C   0  0  0  0  0  0  0  0  0  0  0  0
   -3.3992    0.5065   -0.2138 C   0  0  0  0  0  0  0  0  0  0  0  0
    3.2217   -0.6858   -1.6965 H   0  0  0  0  0  0  0  0  0  0  0  0
    2.9437   -1.8172   -0.3505 H   0  0  0  0  0  0  0  0  0  0  0  0
    1.1907    0.3141   -1.3626 H   0  0  0  0  0  0  0  0  0  0  0  0
    4.7419   -0.2161    0.2527 H   0  0  0  0  0  0  0  0  0  0  0  0
    3.3156    0.0886    1.2769 H   0  0  0  0  0  0  0  0  0  0  0  0
   -1.6449   -2.3644   -0.3211 H   0  0  0  0  0  0  0  0  0  0  0  0
   -3.9724   -1.5400   -0.5726 H   0  0  0  0  0  0  0  0  0  0  0  0
   -4.4012    0.9100   -0.3162 H   0  0  0  0  0  0  0  0  0  0  0  0
    0.6495    1.5613    1.0148 H   0  0  0  0  0  0  0  0  0  0  0  0
   -0.4242    2.8414    0.5548 H   0  0  0  0  0  0  0  0  0  0  0  0
    4.1904    1.9872    0.3905 H   0  0  0  0  0  0  0  0  0  0  0  0
  1  9  1  0  0  0  0
  1 24  1  0  0  0  0
  2  8  2  0  0  0  0
  3  6  1  0  0  0  0
  3  8  1  0  0  0  0
  3 16  1  0  0  0  0
  4 10  1  0  0  0  0
  4 13  2  0  0  0  0
  5 10  1  0  0  0  0
  5 22  1  0  0  0  0
  5 23  1  0  0  0  0
  6  9  1  0  0  0  0
  6 14  1  0  0  0  0
  6 15  1  0  0  0  0
  7  8  1  0  0  0  0
  7 10  2  0  0  0  0
  7 11  1  0  0  0  0
  9 17  1  0  0  0  0
  9 18  1  0  0  0  0
 11 12  2  0  0  0  0
 11 19  1  0  0  0  0
 12 13  1  0  0  0  0
 12 20  1  0  0  0  0
 13 21  1  0  0  0  0
M  END
>  <PUBCHEM_COMPOUND_CID>
33734963

>  <PUBCHEM_CONFORMER_RMSD>
0.6

>  <PUBCHEM_CONFORMER_DIVERSEORDER>
1
9
16
10
13
5
4
7
18
22
20
24
12
19
11
6
8
2
3
17
21
15
23
14

>  <PUBCHEM_MMFF94_PARTIAL_CHARGES>
20
1 -0.68
10 0.41
11 -0.15
12 -0.15
13 0.16
16 0.37
19 0.15
2 -0.57
20 0.15
21 0.15
22 0.4
23 0.4
24 0.4
3 -0.73
4 -0.62
5 -0.9
6 0.3
7 0.09
8 0.54
9 0.28

>  <PUBCHEM_EFFECTIVE_ROTOR_COUNT>
4

>  <PUBCHEM_PHARMACOPHORE_FEATURES>
8
1 1 acceptor
1 1 donor
1 2 acceptor
1 3 donor
1 4 acceptor
1 5 cation
1 5 donor
6 4 7 10 11 12 13 rings

>  <PUBCHEM_HEAVY_ATOM_COUNT>
13

>  <PUBCHEM_ATOM_DEF_STEREO_COUNT>
0

>  <PUBCHEM_ATOM_UDEF_STEREO_COUNT>
0

>  <PUBCHEM_BOND_DEF_STEREO_COUNT>
0

>  <PUBCHEM_BOND_UDEF_STEREO_COUNT>
0

>  <PUBCHEM_ISOTOPIC_ATOM_COUNT>
0

>  <PUBCHEM_COMPONENT_COUNT>
1

>  <PUBCHEM_CACTVS_TAUTO_COUNT>
7

>  <PUBCHEM_CONFORMER_ID>
0202C13300000001

>  <PUBCHEM_MMFF94_ENERGY>
36.1981

>  <PUBCHEM_FEATURE_SELFOVERLAP>
40.6

>  <PUBCHEM_SHAPE_FINGERPRINT>
11132069 177 18413101771253406104
12162725 195 18411138043749773348
12897270 3 18272655606066038974
12932764 1 17969788483812037630
14325111 11 18410294700887707830
14614273 12 18187639146666335045
15775835 57 18260832561990872724
16945 1 17967824825064993223
18186145 218 18259987059076781710
20871999 31 18129929179086966743
22213442 358 18129658737448481911
22802520 49 17700713773517362023
23402539 116 18342447158563817638
23557571 272 17988937694401546222
23559900 14 18272087137675884166
2748010 2 15960049913468372049
353137 74 18410292467320279521
6333449 129 18343863307743575671
7364860 26 18194680359086154674

>  <PUBCHEM_SHAPE_MULTIPOLES>
240.85
6.17
1.69
0.77
3.15
0.36
0.04
0.91
-0.86
-0.12
0.21
0.18
-0.16
-0.14

>  <PUBCHEM_SHAPE_SELFOVERLAP>
493.33

>  <PUBCHEM_SHAPE_VOLUME>
138

>  <PUBCHEM_COORDINATE_TYPE>
2
5
10

$$$$
