353133
 OpenBabel01182520543D

 18 18  0  0  0  0  0  0  0  0999 V2000
    3.4925   -1.2848   -0.0106 O   0  0  0  0  0  0  0  0  0  0  0  0
   -4.6684   -0.1078   -0.0014 O   0  0  0  0  0  0  0  0  0  0  0  0
   -0.4497    1.3990   -0.0027 N   0  0  0  0  0  0  0  0  0  0  0  0
   -2.6255    0.4282   -0.0023 N   0  0  0  0  0  0  0  0  0  0  0  0
    3.6977    0.9992    0.0023 N   0  0  0  0  0  0  0  0  0  0  0  0
   -3.5159   -0.5521    0.0011 N   0  0  0  0  0  0  0  0  0  0  0  0
    1.4936   -0.0391    0.0034 C   0  0  0  0  0  0  0  0  0  0  0  0
    0.6724   -1.1611    0.0050 C   0  0  0  0  0  0  0  0  0  0  0  0
   -1.2158    0.2851   -0.0009 C   0  0  0  0  0  0  0  0  0  0  0  0
   -0.7093   -1.0045    0.0028 C   0  0  0  0  0  0  0  0  0  0  0  0
    0.8885    1.2073   -0.0007 C   0  0  0  0  0  0  0  0  0  0  0  0
    2.9400   -0.1695    0.0040 C   0  0  0  0  0  0  0  0  0  0  0  0
    1.0875   -2.1653    0.0080 H   0  0  0  0  0  0  0  0  0  0  0  0
   -1.3314   -1.8931    0.0042 H   0  0  0  0  0  0  0  0  0  0  0  0
    1.4303    2.1445   -0.0034 H   0  0  0  0  0  0  0  0  0  0  0  0
   -2.9684    1.3824   -0.0051 H   0  0  0  0  0  0  0  0  0  0  0  0
    3.3271    1.9411    0.0092 H   0  0  0  0  0  0  0  0  0  0  0  0
    4.7110    0.9371   -0.0043 H   0  0  0  0  0  0  0  0  0  0  0  0
  1 12  2  0  0  0  0
  2  6  2  0  0  0  0
  3  9  2  0  0  0  0
  3 11  1  0  0  0  0
  4  6  1  0  0  0  0
  4  9  1  0  0  0  0
  4 16  1  0  0  0  0
  5 12  1  0  0  0  0
  5 17  1  0  0  0  0
  5 18  1  0  0  0  0
  7  8  1  0  0  0  0
  7 11  2  0  0  0  0
  7 12  1  0  0  0  0
  8 10  2  0  0  0  0
  8 13  1  0  0  0  0
  9 10  1  0  0  0  0
 10 14  1  0  0  0  0
 11 15  1  0  0  0  0
M  END
>  <PUBCHEM_COMPOUND_CID>
353133

>  <PUBCHEM_CONFORMER_RMSD>
0.6

>  <PUBCHEM_CONFORMER_DIVERSEORDER>
1
8
3
5
7
2
4
6

>  <PUBCHEM_MMFF94_PARTIAL_CHARGES>
17
1 -0.57
10 -0.15
11 0.16
12 0.54
13 0.15
14 0.15
15 0.15
16 0.4
17 0.37
18 0.37
2 -0.16
3 -0.62
4 -0.34
5 -0.8
7 0.09
8 -0.15
9 0.41

>  <PUBCHEM_EFFECTIVE_ROTOR_COUNT>
3

>  <PUBCHEM_PHARMACOPHORE_FEATURES>
5
1 1 acceptor
1 4 donor
1 5 donor
3 3 4 9 cation
6 3 7 8 9 10 11 rings

>  <PUBCHEM_HEAVY_ATOM_COUNT>
12

>  <PUBCHEM_ATOM_DEF_STEREO_COUNT>
0

>  <PUBCHEM_ATOM_UDEF_STEREO_COUNT>
0

>  <PUBCHEM_BOND_DEF_STEREO_COUNT>
0

>  <PUBCHEM_BOND_UDEF_STEREO_COUNT>
0

>  <PUBCHEM_ISOTOPIC_ATOM_COUNT>
0

>  <PUBCHEM_COMPONENT_COUNT>
1

>  <PUBCHEM_CACTVS_TAUTO_COUNT>
9

>  <PUBCHEM_CONFORMER_ID>
0005636D00000001

>  <PUBCHEM_MMFF94_ENERGY>
33.2204

>  <PUBCHEM_FEATURE_SELFOVERLAP>
25.371

>  <PUBCHEM_SHAPE_FINGERPRINT>
10219947 1 18412548708066624327
11062470 55 17703791439717710961
11401426 45 18411411826234341469
11471102 20 18410289220282578389
12032990 46 18410297986279375767
12932764 1 16128081265817153920
13690532 89 18409166588814400762
14325111 11 18410573963798083360
14993402 34 18342179985353208510
16945 1 18411416207042961100
193761 8 17689998259594402592
20201158 50 18334579031769878659
20645477 70 18412543176223120119
21293036 1 18335420179281040204
22485316 2 18410007749869957695
23402539 116 18201991118951003983
23402655 69 18340194208163101437
2748010 2 18122064474938454140
449060 62 18341615957890750288

>  <PUBCHEM_SHAPE_MULTIPOLES>
215.29
6.63
1.31
0.57
3.9
0.05
0
-0.52
0.01
-0.59
0
-0.04
-0.01
0

>  <PUBCHEM_SHAPE_SELFOVERLAP>
449.328

>  <PUBCHEM_SHAPE_VOLUME>
120.4

>  <PUBCHEM_COORDINATE_TYPE>
2
5
10

$$$$
