354904
 OpenBabel01182520543D

 25 27  0  0  0  0  0  0  0  0999 V2000
    2.2424   -2.5966   -0.0022 O   0  0  0  0  0  0  0  0  0  0  0  0
   -0.6340    0.2298    0.0018 N   0  0  0  0  0  0  0  0  0  0  0  0
    0.0142   -2.0916    0.0007 N   0  0  0  0  0  0  0  0  0  0  0  0
    1.0537    1.9816    0.0019 N   0  0  0  0  0  0  0  0  0  0  0  0
    0.7267    0.6616    0.0015 C   0  0  0  0  0  0  0  0  0  0  0  0
   -0.8884   -1.1481    0.0015 C   0  0  0  0  0  0  0  0  0  0  0  0
    1.7233   -0.3198    0.0002 C   0  0  0  0  0  0  0  0  0  0  0  0
   -1.6962    1.1259    0.0008 C   0  0  0  0  0  0  0  0  0  0  0  0
   -2.9847    0.7388   -0.0008 C   0  0  0  0  0  0  0  0  0  0  0  0
   -2.3179   -1.6186    0.0011 C   0  0  0  0  0  0  0  0  0  0  0  0
   -3.2817   -0.6853   -0.0003 C   0  0  0  0  0  0  0  0  0  0  0  0
    1.3492   -1.7552   -0.0002 C   0  0  0  0  0  0  0  0  0  0  0  0
    3.0682    0.0592   -0.0015 C   0  0  0  0  0  0  0  0  0  0  0  0
   -4.1363    1.6922   -0.0033 C   0  0  0  0  0  0  0  0  0  0  0  0
    3.3982    1.4061   -0.0015 C   0  0  0  0  0  0  0  0  0  0  0  0
    2.3632    2.3199    0.0004 C   0  0  0  0  0  0  0  0  0  0  0  0
   -1.4266    2.1761    0.0005 H   0  0  0  0  0  0  0  0  0  0  0  0
   -2.5328   -2.6799    0.0013 H   0  0  0  0  0  0  0  0  0  0  0  0
   -4.3240   -0.9888   -0.0010 H   0  0  0  0  0  0  0  0  0  0  0  0
    3.8656   -0.6782   -0.0029 H   0  0  0  0  0  0  0  0  0  0  0  0
   -3.8011    2.7350   -0.0037 H   0  0  0  0  0  0  0  0  0  0  0  0
   -4.7604    1.5450    0.8846 H   0  0  0  0  0  0  0  0  0  0  0  0
   -4.7577    1.5436   -0.8929 H   0  0  0  0  0  0  0  0  0  0  0  0
    4.4326    1.7295   -0.0028 H   0  0  0  0  0  0  0  0  0  0  0  0
    2.5627    3.3864    0.0007 H   0  0  0  0  0  0  0  0  0  0  0  0
  1 12  2  0  0  0  0
  2  5  1  0  0  0  0
  2  6  1  0  0  0  0
  2  8  1  0  0  0  0
  3  6  2  0  0  0  0
  3 12  1  0  0  0  0
  4  5  1  0  0  0  0
  4 16  2  0  0  0  0
  5  7  2  0  0  0  0
  6 10  1  0  0  0  0
  7 12  1  0  0  0  0
  7 13  1  0  0  0  0
  8  9  2  0  0  0  0
  8 17  1  0  0  0  0
  9 11  1  0  0  0  0
  9 14  1  0  0  0  0
 10 11  2  0  0  0  0
 10 18  1  0  0  0  0
 11 19  1  0  0  0  0
 13 15  2  0  0  0  0
 13 20  1  0  0  0  0
 14 21  1  0  0  0  0
 14 22  1  0  0  0  0
 14 23  1  0  0  0  0
 15 16  1  0  0  0  0
 15 24  1  0  0  0  0
 16 25  1  0  0  0  0
M  END
>  <PUBCHEM_COMPOUND_CID>
354904

>  <PUBCHEM_CONFORMER_RMSD>
0.4

>  <PUBCHEM_CONFORMER_DIVERSEORDER>
1

>  <PUBCHEM_MMFF94_PARTIAL_CHARGES>
22
1 -0.57
10 -0.14
11 -0.15
12 0.69
13 -0.15
14 0.14
15 -0.15
16 0.16
17 0.15
18 0.15
19 0.15
2 -0.25
20 0.15
24 0.15
25 0.15
3 -0.66
4 -0.62
5 0.41
6 0.49
7 0.09
8 -0.05
9 -0.14

>  <PUBCHEM_EFFECTIVE_ROTOR_COUNT>
0

>  <PUBCHEM_PHARMACOPHORE_FEATURES>
6
1 1 acceptor
1 3 donor
1 4 acceptor
6 2 3 5 6 7 12 rings
6 2 6 8 9 10 11 rings
6 4 5 7 13 15 16 rings

>  <PUBCHEM_HEAVY_ATOM_COUNT>
16

>  <PUBCHEM_ATOM_DEF_STEREO_COUNT>
0

>  <PUBCHEM_ATOM_UDEF_STEREO_COUNT>
0

>  <PUBCHEM_BOND_DEF_STEREO_COUNT>
0

>  <PUBCHEM_BOND_UDEF_STEREO_COUNT>
0

>  <PUBCHEM_ISOTOPIC_ATOM_COUNT>
0

>  <PUBCHEM_COMPONENT_COUNT>
1

>  <PUBCHEM_CACTVS_TAUTO_COUNT>
1

>  <PUBCHEM_CONFORMER_ID>
00056A5800000001

>  <PUBCHEM_MMFF94_ENERGY>
46.6634

>  <PUBCHEM_FEATURE_SELFOVERLAP>
30.505

>  <PUBCHEM_SHAPE_FINGERPRINT>
10411042 1 17041761990317195087
10465860 228 18340493270208066529
10608611 8 18409165506793833077
10967382 1 18338798909788483237
10980938 120 18409730655554102224
11132069 177 18410285939049130400
11471102 20 18338231544972711149
11680986 33 18410018701804616451
12173636 292 18050004699041829244
13140716 1 18409443674387074946
13380535 21 18409175406598316399
13380535 76 18336824298637587274
13897977 150 18410008832191140877
14144814 61 18409728486600983513
14325111 11 18410855511757764929
14648413 74 18409451358205029499
14790565 3 16469262744080415768
14897335 6 18411695478843906245
15196674 1 18410855468744496132
15219456 202 18408046191219405443
15442244 35 18196091040861858713
15536298 74 18343301435774360502
15775835 57 18409172116558623541
16945 1 18338799030042494146
18186145 218 18201451306055276560
20510252 161 17982738772329839361
20645477 70 18270398287562172551
21267235 1 18410864282054655087
21501502 16 18410849962881499647
21524375 3 18264485251277087682
22094290 62 18339079272648135195
221490 88 18409176497346508043
2334 1 18338517555049712392
23463225 33 18335133202841509568
23559900 14 18272097149767105076
238 59 17467872356909684445
25 1 18408885135444298012
2748010 2 18337393746818466238
2871803 45 18267859678480709503
3071541 12 18411422786932826126
3091708 16 9260807642080638250
335352 9 18338798892671820582
5104073 3 18410292535976245721
53812653 166 18413386549017769440
63268167 104 18339646646286015803
7364860 26 18341332202012092398
7832392 63 18412824655546999653
81228 2 16829520545733823530
9709674 26 18410578400768754279

>  <PUBCHEM_SHAPE_MULTIPOLES>
308.46
6.09
2.67
0.59
2.57
0.5
0
-2.55
-0.01
-0.86
0
0.02
-0.02
0

>  <PUBCHEM_SHAPE_SELFOVERLAP>
684.819

>  <PUBCHEM_SHAPE_VOLUME>
162

>  <PUBCHEM_COORDINATE_TYPE>
2
5
10

$$$$
