36005523
 OpenBabel01182520543D

 35 35  0  0  0  0  0  0  0  0999 V2000
    1.6641    1.9202   -0.4579 O   0  0  0  0  0  0  0  0  0  0  0  0
    2.1389   -0.0151    0.7246 N   0  0  0  0  0  0  0  0  0  0  0  0
   -4.1747   -0.4386   -0.0556 N   0  0  0  0  0  0  0  0  0  0  0  0
   -2.4512    1.2063   -0.0729 N   0  0  0  0  0  0  0  0  0  0  0  0
    4.3202   -0.4093   -0.3618 C   0  0  0  0  0  0  0  0  0  0  0  0
    3.5572    0.2015    0.8189 C   0  0  0  0  0  0  0  0  0  0  0  0
    4.0831   -1.9190   -0.4144 C   0  0  0  0  0  0  0  0  0  0  0  0
    5.8204   -0.1193   -0.2752 C   0  0  0  0  0  0  0  0  0  0  0  0
    1.2977    0.8795    0.0821 C   0  0  0  0  0  0  0  0  0  0  0  0
   -0.1398    0.5076    0.0473 C   0  0  0  0  0  0  0  0  0  0  0  0
   -2.7995   -0.0990   -0.0214 C   0  0  0  0  0  0  0  0  0  0  0  0
   -0.5373   -0.8240    0.0983 C   0  0  0  0  0  0  0  0  0  0  0  0
   -1.8907   -1.1414    0.0638 C   0  0  0  0  0  0  0  0  0  0  0  0
   -1.1269    1.4762   -0.0371 C   0  0  0  0  0  0  0  0  0  0  0  0
   -4.5831   -1.8247   -0.0024 C   0  0  0  0  0  0  0  0  0  0  0  0
   -5.1784    0.5993   -0.1363 C   0  0  0  0  0  0  0  0  0  0  0  0
    3.9426    0.0262   -1.2958 H   0  0  0  0  0  0  0  0  0  0  0  0
    3.8895   -0.2408    1.7650 H   0  0  0  0  0  0  0  0  0  0  0  0
    3.7508    1.2790    0.8733 H   0  0  0  0  0  0  0  0  0  0  0  0
    4.3985   -2.4052    0.5152 H   0  0  0  0  0  0  0  0  0  0  0  0
    4.6491   -2.3698   -1.2370 H   0  0  0  0  0  0  0  0  0  0  0  0
    3.0272   -2.1555   -0.5815 H   0  0  0  0  0  0  0  0  0  0  0  0
    6.2553   -0.5468    0.6346 H   0  0  0  0  0  0  0  0  0  0  0  0
    6.0045    0.9600   -0.2641 H   0  0  0  0  0  0  0  0  0  0  0  0
    6.3496   -0.5411   -1.1361 H   0  0  0  0  0  0  0  0  0  0  0  0
    1.7657   -0.8354    1.1904 H   0  0  0  0  0  0  0  0  0  0  0  0
    0.1773   -1.6407    0.1371 H   0  0  0  0  0  0  0  0  0  0  0  0
   -2.1569   -2.1908    0.0996 H   0  0  0  0  0  0  0  0  0  0  0  0
   -0.8853    2.5339   -0.0764 H   0  0  0  0  0  0  0  0  0  0  0  0
   -5.6744   -1.9220   -0.0381 H   0  0  0  0  0  0  0  0  0  0  0  0
   -4.2654   -2.3011    0.9320 H   0  0  0  0  0  0  0  0  0  0  0  0
   -4.1993   -2.3895   -0.8595 H   0  0  0  0  0  0  0  0  0  0  0  0
   -6.1942    0.1904   -0.1588 H   0  0  0  0  0  0  0  0  0  0  0  0
   -5.0490    1.1940   -1.0473 H   0  0  0  0  0  0  0  0  0  0  0  0
   -5.1166    1.2663    0.7307 H   0  0  0  0  0  0  0  0  0  0  0  0
  1  9  2  0  0  0  0
  2  6  1  0  0  0  0
  2  9  1  0  0  0  0
  2 26  1  0  0  0  0
  3 11  1  0  0  0  0
  3 15  1  0  0  0  0
  3 16  1  0  0  0  0
  4 11  2  0  0  0  0
  4 14  1  0  0  0  0
  5  6  1  0  0  0  0
  5  7  1  0  0  0  0
  5  8  1  0  0  0  0
  5 17  1  0  0  0  0
  6 18  1  0  0  0  0
  6 19  1  0  0  0  0
  7 20  1  0  0  0  0
  7 21  1  0  0  0  0
  7 22  1  0  0  0  0
  8 23  1  0  0  0  0
  8 24  1  0  0  0  0
  8 25  1  0  0  0  0
  9 10  1  0  0  0  0
 10 12  1  0  0  0  0
 10 14  2  0  0  0  0
 11 13  1  0  0  0  0
 12 13  2  0  0  0  0
 12 27  1  0  0  0  0
 13 28  1  0  0  0  0
 14 29  1  0  0  0  0
 15 30  1  0  0  0  0
 15 31  1  0  0  0  0
 15 32  1  0  0  0  0
 16 33  1  0  0  0  0
 16 34  1  0  0  0  0
 16 35  1  0  0  0  0
M  END
>  <PUBCHEM_COMPOUND_CID>
36005523

>  <PUBCHEM_CONFORMER_RMSD>
0.6

>  <PUBCHEM_CONFORMER_DIVERSEORDER>
2
16
10
13
23
4
9
31
21
11
18
14
3
22
29
12
32
19
7
6
30
27
20
25
8
28
5
15
26
1
17
24

>  <PUBCHEM_MMFF94_PARTIAL_CHARGES>
17
1 -0.57
10 0.09
11 0.41
12 -0.15
13 -0.15
14 0.16
15 0.37
16 0.37
2 -0.73
26 0.37
27 0.15
28 0.15
29 0.15
3 -0.84
4 -0.62
6 0.3
9 0.54

>  <PUBCHEM_EFFECTIVE_ROTOR_COUNT>
5

>  <PUBCHEM_PHARMACOPHORE_FEATURES>
5
1 1 acceptor
1 2 donor
3 3 4 11 cation
3 5 7 8 hydrophobe
6 4 10 11 12 13 14 rings

>  <PUBCHEM_HEAVY_ATOM_COUNT>
16

>  <PUBCHEM_ATOM_DEF_STEREO_COUNT>
0

>  <PUBCHEM_ATOM_UDEF_STEREO_COUNT>
0

>  <PUBCHEM_BOND_DEF_STEREO_COUNT>
0

>  <PUBCHEM_BOND_UDEF_STEREO_COUNT>
0

>  <PUBCHEM_ISOTOPIC_ATOM_COUNT>
0

>  <PUBCHEM_COMPONENT_COUNT>
1

>  <PUBCHEM_CACTVS_TAUTO_COUNT>
2

>  <PUBCHEM_CONFORMER_ID>
0225669300000002

>  <PUBCHEM_MMFF94_ENERGY>
46.643

>  <PUBCHEM_FEATURE_SELFOVERLAP>
25.371

>  <PUBCHEM_SHAPE_FINGERPRINT>
10968037 39 18335704961825615532
12032990 46 18410856585773551323
12236239 1 17676205767119522782
13288520 33 18412827975409123860
13675066 3 18272644688454117529
13690532 89 18410292510174746984
14115302 16 17676497176060404446
14251718 22 18259705618533590782
14251731 8 18334574638018068469
14251752 14 17241314777412284222
15099037 51 18408602561124667239
15196674 1 18337953493053319225
15342816 4 18188209806603354750
15536298 74 18338231682243138896
17804303 29 18413107281590912833
17834072 33 18335986458282612924
17834072 8 18334287665746969781
18186145 218 17604138329021859661
19141452 34 18202843279428816703
200 152 17846494829447087563
20374829 77 18408318886845243058
20645477 70 18334856172955574582
20871999 31 18187082815347447332
21150785 3 12396578581582178283
21267235 1 18336270136899553027
2215653 11 18272084968152702647
2297311 6 18272378559585764748
23402539 116 18130781270412174941
23559900 14 18341044224502647936
26918003 58 15554446309847123150
2871803 45 18336266748117660770
3004659 81 18188211997237317638
335352 9 18410291411544256573
4047638 21 11241969270364501096
42 15 18202565081253287002
4463277 17 18407760339402280524
5104073 3 18338234968030128273
59755656 215 18339922602620199775
7364860 26 18267584792079023000
9709674 26 18263363757890782867

>  <PUBCHEM_SHAPE_MULTIPOLES>
308.46
11.77
1.71
0.7
3.53
0.21
-0.04
3.58
0.96
-0.35
0.18
0.33
0
0.3

>  <PUBCHEM_SHAPE_SELFOVERLAP>
620.327

>  <PUBCHEM_SHAPE_VOLUME>
180.9

>  <PUBCHEM_COORDINATE_TYPE>
2
5
10

$$$$
