36005343
 OpenBabel01182520543D

 30 30  0  0  0  0  0  0  0  0999 V2000
   -2.1751    1.3216    0.9858 O   0  0  0  0  0  0  0  0  0  0  0  0
    3.8659   -0.1220   -0.2691 N   0  0  0  0  0  0  0  0  0  0  0  0
    1.7705   -1.1619    0.1832 N   0  0  0  0  0  0  0  0  0  0  0  0
   -2.4138   -0.8565    0.2268 N   0  0  0  0  0  0  0  0  0  0  0  0
    2.4674   -0.0293   -0.0601 C   0  0  0  0  0  0  0  0  0  0  0  0
   -0.2230    0.1974    0.3349 C   0  0  0  0  0  0  0  0  0  0  0  0
    1.8995    1.2331   -0.1204 C   0  0  0  0  0  0  0  0  0  0  0  0
    0.5280    1.3400    0.0820 C   0  0  0  0  0  0  0  0  0  0  0  0
    0.4400   -1.0186    0.3748 C   0  0  0  0  0  0  0  0  0  0  0  0
   -1.6571    0.2767    0.5509 C   0  0  0  0  0  0  0  0  0  0  0  0
    4.6424    1.0690   -0.5325 C   0  0  0  0  0  0  0  0  0  0  0  0
    4.5261   -1.4074   -0.2127 C   0  0  0  0  0  0  0  0  0  0  0  0
   -3.8510   -0.9251    0.3629 C   0  0  0  0  0  0  0  0  0  0  0  0
   -4.4836   -0.4722   -0.9108 C   0  0  0  0  0  0  0  0  0  0  0  0
   -5.3362    0.5553   -0.9956 C   0  0  0  0  0  0  0  0  0  0  0  0
    2.4463    2.1475   -0.3151 H   0  0  0  0  0  0  0  0  0  0  0  0
    0.0610    2.3202    0.0353 H   0  0  0  0  0  0  0  0  0  0  0  0
   -0.0629   -1.9549    0.5933 H   0  0  0  0  0  0  0  0  0  0  0  0
    5.7034    0.8319   -0.6730 H   0  0  0  0  0  0  0  0  0  0  0  0
    4.5960    1.7722    0.3068 H   0  0  0  0  0  0  0  0  0  0  0  0
    4.3170    1.5648   -1.4541 H   0  0  0  0  0  0  0  0  0  0  0  0
    5.6029   -1.3267   -0.3959 H   0  0  0  0  0  0  0  0  0  0  0  0
    4.1189   -2.0860   -0.9704 H   0  0  0  0  0  0  0  0  0  0  0  0
    4.3987   -1.8654    0.7743 H   0  0  0  0  0  0  0  0  0  0  0  0
   -1.9617   -1.6645   -0.1885 H   0  0  0  0  0  0  0  0  0  0  0  0
   -4.1157   -1.9682    0.5615 H   0  0  0  0  0  0  0  0  0  0  0  0
   -4.1640   -0.3182    1.2189 H   0  0  0  0  0  0  0  0  0  0  0  0
   -4.2448   -1.0238   -1.8167 H   0  0  0  0  0  0  0  0  0  0  0  0
   -5.7695    0.8322   -1.9505 H   0  0  0  0  0  0  0  0  0  0  0  0
   -5.6145    1.1352   -0.1226 H   0  0  0  0  0  0  0  0  0  0  0  0
  1 10  2  0  0  0  0
  2  5  1  0  0  0  0
  2 11  1  0  0  0  0
  2 12  1  0  0  0  0
  3  5  2  0  0  0  0
  3  9  1  0  0  0  0
  4 10  1  0  0  0  0
  4 13  1  0  0  0  0
  4 25  1  0  0  0  0
  5  7  1  0  0  0  0
  6  8  1  0  0  0  0
  6  9  2  0  0  0  0
  6 10  1  0  0  0  0
  7  8  2  0  0  0  0
  7 16  1  0  0  0  0
  8 17  1  0  0  0  0
  9 18  1  0  0  0  0
 11 19  1  0  0  0  0
 11 20  1  0  0  0  0
 11 21  1  0  0  0  0
 12 22  1  0  0  0  0
 12 23  1  0  0  0  0
 12 24  1  0  0  0  0
 13 14  1  0  0  0  0
 13 26  1  0  0  0  0
 13 27  1  0  0  0  0
 14 15  2  0  0  0  0
 14 28  1  0  0  0  0
 15 29  1  0  0  0  0
 15 30  1  0  0  0  0
M  END
>  <PUBCHEM_COMPOUND_CID>
36005343

>  <PUBCHEM_CONFORMER_RMSD>
0.6

>  <PUBCHEM_CONFORMER_DIVERSEORDER>
1
10
26
8
28
17
12
11
20
3
27
25
2
9
23
5
21
14
22
16
6
19
24
7
15
13
4
18

>  <PUBCHEM_MMFF94_PARTIAL_CHARGES>
22
1 -0.57
10 0.54
11 0.37
12 0.37
13 0.44
14 -0.29
15 -0.3
16 0.15
17 0.15
18 0.15
2 -0.84
25 0.37
28 0.15
29 0.15
3 -0.62
30 0.15
4 -0.73
5 0.41
6 0.09
7 -0.15
8 -0.15
9 0.16

>  <PUBCHEM_EFFECTIVE_ROTOR_COUNT>
5

>  <PUBCHEM_PHARMACOPHORE_FEATURES>
5
1 1 acceptor
1 15 hydrophobe
1 4 donor
3 2 3 5 cation
6 3 5 6 7 8 9 rings

>  <PUBCHEM_HEAVY_ATOM_COUNT>
15

>  <PUBCHEM_ATOM_DEF_STEREO_COUNT>
0

>  <PUBCHEM_ATOM_UDEF_STEREO_COUNT>
0

>  <PUBCHEM_BOND_DEF_STEREO_COUNT>
0

>  <PUBCHEM_BOND_UDEF_STEREO_COUNT>
0

>  <PUBCHEM_ISOTOPIC_ATOM_COUNT>
0

>  <PUBCHEM_COMPONENT_COUNT>
1

>  <PUBCHEM_CACTVS_TAUTO_COUNT>
2

>  <PUBCHEM_CONFORMER_ID>
022565DF00000001

>  <PUBCHEM_MMFF94_ENERGY>
45.8841

>  <PUBCHEM_FEATURE_SELFOVERLAP>
25.371

>  <PUBCHEM_SHAPE_FINGERPRINT>
10354089 29 10809342213695510727
11046707 91 16917065581804129887
11401426 45 18335417997553678872
11471102 20 18408041823163753860
11806522 49 18341614853693583250
12670543 26 18334293128344132999
13581323 91 16271930406597095012
13690532 89 18412827979931002890
13760787 5 18262250957902977880
14123238 8 16271928229069696898
14576447 43 18272645787807860111
14911166 2 18335421278803288847
14943859 89 10737285757565427121
14993402 34 18341898510598141278
17834072 33 18202282515355110604
17834076 25 14634869742887540030
18186145 218 17967523606476933801
18222031 100 15985101928997857280
200 152 18202561783151004753
20621476 66 18199191698898798433
20645477 56 12035450544904457435
20645477 70 18409730642732997582
20671657 53 18343586261063153281
21029758 11 18343302591004791721
21119208 17 18411697699347312055
21637258 2 16200158647386528750
221490 88 18120660394421800939
23402539 116 17632296753047736209
23402655 69 18409445886622318757
23557571 272 15338855143841606249
23559900 14 18341611572734357688
2871803 45 18335701615808844894
29717793 49 18131072597785250502
32948 21 17967527948166721829
4047638 21 12973605530190408358
4072396 5 18115290238198197498
42 15 10952056662496234335
542803 24 14562531777800835367

>  <PUBCHEM_SHAPE_MULTIPOLES>
287.88
10.6
1.44
0.85
3.97
0.03
0.05
-0.75
3.69
-0.76
-0.05
0.65
0.09
-0.02

>  <PUBCHEM_SHAPE_SELFOVERLAP>
584.121

>  <PUBCHEM_SHAPE_VOLUME>
167.2

>  <PUBCHEM_COORDINATE_TYPE>
2
5
10

$$$$
