36005251
 OpenBabel01182520543D

 38 38  0  0  0  0  0  0  0  0999 V2000
    1.1181   -2.3515    0.5533 O   0  0  0  0  0  0  0  0  0  0  0  0
    1.8433   -0.5828   -0.7609 N   0  0  0  0  0  0  0  0  0  0  0  0
   -4.3464    0.7577    0.0420 N   0  0  0  0  0  0  0  0  0  0  0  0
   -2.8598   -1.0992    0.1794 N   0  0  0  0  0  0  0  0  0  0  0  0
    4.1557    1.0732    0.3104 C   0  0  0  0  0  0  0  0  0  0  0  0
    4.1021   -0.4648    0.2168 C   0  0  0  0  0  0  0  0  0  0  0  0
    3.2072   -1.0135   -0.8920 C   0  0  0  0  0  0  0  0  0  0  0  0
    4.6870    1.6524   -1.0036 C   0  0  0  0  0  0  0  0  0  0  0  0
    5.0213    1.5578    1.4744 C   0  0  0  0  0  0  0  0  0  0  0  0
    0.8952   -1.2981   -0.0376 C   0  0  0  0  0  0  0  0  0  0  0  0
   -0.4784   -0.7327   -0.0201 C   0  0  0  0  0  0  0  0  0  0  0  0
   -3.0303    0.2328    0.0231 C   0  0  0  0  0  0  0  0  0  0  0  0
   -0.6941    0.6319   -0.1777 C   0  0  0  0  0  0  0  0  0  0  0  0
   -1.5849   -1.5484    0.1536 C   0  0  0  0  0  0  0  0  0  0  0  0
   -1.9915    1.1319   -0.1568 C   0  0  0  0  0  0  0  0  0  0  0  0
   -4.5656    2.1775   -0.1222 C   0  0  0  0  0  0  0  0  0  0  0  0
   -5.4788   -0.1243    0.2179 C   0  0  0  0  0  0  0  0  0  0  0  0
    3.1421    1.4601    0.4730 H   0  0  0  0  0  0  0  0  0  0  0  0
    5.1166   -0.8586    0.0748 H   0  0  0  0  0  0  0  0  0  0  0  0
    3.7506   -0.8570    1.1801 H   0  0  0  0  0  0  0  0  0  0  0  0
    3.5602   -0.7104   -1.8820 H   0  0  0  0  0  0  0  0  0  0  0  0
    3.2368   -2.1089   -0.8655 H   0  0  0  0  0  0  0  0  0  0  0  0
    5.6575    1.2194   -1.2687 H   0  0  0  0  0  0  0  0  0  0  0  0
    3.9936    1.4795   -1.8319 H   0  0  0  0  0  0  0  0  0  0  0  0
    4.8162    2.7375   -0.9219 H   0  0  0  0  0  0  0  0  0  0  0  0
    6.0585    1.2241    1.3626 H   0  0  0  0  0  0  0  0  0  0  0  0
    4.6413    1.1688    2.4248 H   0  0  0  0  0  0  0  0  0  0  0  0
    5.0197    2.6511    1.5350 H   0  0  0  0  0  0  0  0  0  0  0  0
    1.5791    0.2548   -1.2682 H   0  0  0  0  0  0  0  0  0  0  0  0
    0.1229    1.3381   -0.2906 H   0  0  0  0  0  0  0  0  0  0  0  0
   -2.1148    2.2013   -0.2769 H   0  0  0  0  0  0  0  0  0  0  0  0
   -1.4877   -2.6225    0.2783 H   0  0  0  0  0  0  0  0  0  0  0  0
   -5.6328    2.4247   -0.0843 H   0  0  0  0  0  0  0  0  0  0  0  0
   -4.2060    2.5293   -1.0958 H   0  0  0  0  0  0  0  0  0  0  0  0
   -4.0917    2.7525    0.6815 H   0  0  0  0  0  0  0  0  0  0  0  0
   -6.4296    0.4191    0.2159 H   0  0  0  0  0  0  0  0  0  0  0  0
   -5.4118   -0.6555    1.1738 H   0  0  0  0  0  0  0  0  0  0  0  0
   -5.5250   -0.8614   -0.5913 H   0  0  0  0  0  0  0  0  0  0  0  0
  1 10  2  0  0  0  0
  2  7  1  0  0  0  0
  2 10  1  0  0  0  0
  2 29  1  0  0  0  0
  3 12  1  0  0  0  0
  3 16  1  0  0  0  0
  3 17  1  0  0  0  0
  4 12  2  0  0  0  0
  4 14  1  0  0  0  0
  5  6  1  0  0  0  0
  5  8  1  0  0  0  0
  5  9  1  0  0  0  0
  5 18  1  0  0  0  0
  6  7  1  0  0  0  0
  6 19  1  0  0  0  0
  6 20  1  0  0  0  0
  7 21  1  0  0  0  0
  7 22  1  0  0  0  0
  8 23  1  0  0  0  0
  8 24  1  0  0  0  0
  8 25  1  0  0  0  0
  9 26  1  0  0  0  0
  9 27  1  0  0  0  0
  9 28  1  0  0  0  0
 10 11  1  0  0  0  0
 11 13  1  0  0  0  0
 11 14  2  0  0  0  0
 12 15  1  0  0  0  0
 13 15  2  0  0  0  0
 13 30  1  0  0  0  0
 14 32  1  0  0  0  0
 15 31  1  0  0  0  0
 16 33  1  0  0  0  0
 16 34  1  0  0  0  0
 16 35  1  0  0  0  0
 17 36  1  0  0  0  0
 17 37  1  0  0  0  0
 17 38  1  0  0  0  0
M  END
>  <PUBCHEM_COMPOUND_CID>
36005251

>  <PUBCHEM_CONFORMER_RMSD>
0.8

>  <PUBCHEM_CONFORMER_DIVERSEORDER>
2
18
21
26
16
10
5
22
4
27
6
9
17
25
33
15
23
11
29
3
12
32
14
20
24
31
13
28
8
30
1
7
19

>  <PUBCHEM_MMFF94_PARTIAL_CHARGES>
17
1 -0.57
10 0.54
11 0.09
12 0.41
13 -0.15
14 0.16
15 -0.15
16 0.37
17 0.37
2 -0.73
29 0.37
3 -0.84
30 0.15
31 0.15
32 0.15
4 -0.62
7 0.3

>  <PUBCHEM_EFFECTIVE_ROTOR_COUNT>
6

>  <PUBCHEM_PHARMACOPHORE_FEATURES>
5
1 1 acceptor
1 2 donor
3 3 4 12 cation
3 5 8 9 hydrophobe
6 4 11 12 13 14 15 rings

>  <PUBCHEM_HEAVY_ATOM_COUNT>
17

>  <PUBCHEM_ATOM_DEF_STEREO_COUNT>
0

>  <PUBCHEM_ATOM_UDEF_STEREO_COUNT>
0

>  <PUBCHEM_BOND_DEF_STEREO_COUNT>
0

>  <PUBCHEM_BOND_UDEF_STEREO_COUNT>
0

>  <PUBCHEM_ISOTOPIC_ATOM_COUNT>
0

>  <PUBCHEM_COMPONENT_COUNT>
1

>  <PUBCHEM_CACTVS_TAUTO_COUNT>
2

>  <PUBCHEM_CONFORMER_ID>
0225658300000002

>  <PUBCHEM_MMFF94_ENERGY>
47.4638

>  <PUBCHEM_FEATURE_SELFOVERLAP>
25.371

>  <PUBCHEM_SHAPE_FINGERPRINT>
10014705 185 18410292502117653469
11128504 68 14692571043940720096
11132069 177 18260832604692625998
11543360 7 16702299065950058790
11858739 19 11097850800506304899
122479 349 18337111263062602010
12596602 18 16588026861315121272
12788726 201 16810696791103459314
13081056 2 18412829053656814374
13533116 47 17604142619536414314
13955234 65 18269559329804434434
1420 369 8502368940556093144
14528608 73 18272930522622264613
15196674 1 18410013225631350884
17834072 32 18336832017232193804
17834072 33 17703785933870279095
17959699 21 18342459196903610457
18186145 218 18271822202528390630
20388580 30 11095880488850073162
20645477 56 18411142424221075311
20645477 70 17488753276574469478
20871999 31 17059762429665604919
212847 35 18410575081191148328
21452121 103 18339918230364727722
22079108 93 18410854390897797311
23016692 55 8430322376584759104
23227448 37 18272085062504774636
23557571 272 18198921377276604142
23559900 14 18128254489412461494
2916195 48 18341608218101207257
34797466 226 16773801441028750893
351380 180 18341891879574805090
3545911 37 18413111667126899612
3680242 22 18261955150536336232
42 15 10809346637248113799
4340502 62 17022627451261519931
465052 167 11530483307494380896
474 4 18260272966559987908
5104073 3 18189338974811180651
5374978 207 18408319973835868482
6333272 397 18334860519710345988
633830 44 18409165511278977702
6913067 236 17676758830021390375
7364860 26 18194401083190884190
7808743 9 18119251907785380644
960060 61 12103845683328021688

>  <PUBCHEM_SHAPE_MULTIPOLES>
329.04
12.08
2.11
0.91
0.03
0.05
-0.07
6.89
-1.11
-0.3
-0.12
-1.19
0.21
0.6

>  <PUBCHEM_SHAPE_SELFOVERLAP>
658.169

>  <PUBCHEM_SHAPE_VOLUME>
194.2

>  <PUBCHEM_COORDINATE_TYPE>
2
5
10

$$$$
