36545136
 OpenBabel01182520543D

 36 37  0  0  0  0  0  0  0  0999 V2000
    2.0929   -2.3197    1.4287 O   0  0  0  0  0  0  0  0  0  0  0  0
    0.1625    0.1547    0.1535 N   0  0  0  0  0  0  0  0  0  0  0  0
    1.7379    1.8581   -0.1917 N   0  0  0  0  0  0  0  0  0  0  0  0
    1.9451   -2.6298   -0.8384 N   0  0  0  0  0  0  0  0  0  0  0  0
   -2.2556    0.2927    0.2968 C   0  0  0  0  0  0  0  0  0  0  0  0
   -3.3857    1.2367    0.7294 C   0  0  0  0  0  0  0  0  0  0  0  0
   -2.6325   -0.4581   -0.9874 C   0  0  0  0  0  0  0  0  0  0  0  0
   -4.7138    0.4970    0.8738 C   0  0  0  0  0  0  0  0  0  0  0  0
   -3.9619   -1.1949   -0.8403 C   0  0  0  0  0  0  0  0  0  0  0  0
   -5.0807   -0.2552   -0.4017 C   0  0  0  0  0  0  0  0  0  0  0  0
   -0.9510    1.0644    0.1074 C   0  0  0  0  0  0  0  0  0  0  0  0
    1.4873    0.5446    0.0076 C   0  0  0  0  0  0  0  0  0  0  0  0
    2.4687   -0.4315    0.0720 C   0  0  0  0  0  0  0  0  0  0  0  0
    3.7927   -0.0338   -0.0776 C   0  0  0  0  0  0  0  0  0  0  0  0
    2.1670   -1.8403    0.2848 C   0  0  0  0  0  0  0  0  0  0  0  0
    3.0366    2.2067   -0.3328 C   0  0  0  0  0  0  0  0  0  0  0  0
    4.0905    1.3085   -0.2842 C   0  0  0  0  0  0  0  0  0  0  0  0
   -2.1251   -0.4467    1.1000 H   0  0  0  0  0  0  0  0  0  0  0  0
   -3.4993    2.0434   -0.0062 H   0  0  0  0  0  0  0  0  0  0  0  0
   -3.1339    1.7112    1.6854 H   0  0  0  0  0  0  0  0  0  0  0  0
   -1.8517   -1.1822   -1.2486 H   0  0  0  0  0  0  0  0  0  0  0  0
   -2.7054    0.2464   -1.8260 H   0  0  0  0  0  0  0  0  0  0  0  0
   -5.5075    1.2106    1.1219 H   0  0  0  0  0  0  0  0  0  0  0  0
   -4.6482   -0.2109    1.7093 H   0  0  0  0  0  0  0  0  0  0  0  0
   -3.8525   -2.0011   -0.1045 H   0  0  0  0  0  0  0  0  0  0  0  0
   -4.2291   -1.6662   -1.7928 H   0  0  0  0  0  0  0  0  0  0  0  0
   -6.0013   -0.8274   -0.2407 H   0  0  0  0  0  0  0  0  0  0  0  0
   -5.2875    0.4648   -1.2031 H   0  0  0  0  0  0  0  0  0  0  0  0
   -0.8384    1.7990    0.9143 H   0  0  0  0  0  0  0  0  0  0  0  0
   -0.9638    1.6161   -0.8405 H   0  0  0  0  0  0  0  0  0  0  0  0
   -0.0019   -0.7528    0.5763 H   0  0  0  0  0  0  0  0  0  0  0  0
    4.6003   -0.7599   -0.0354 H   0  0  0  0  0  0  0  0  0  0  0  0
    3.2156    3.2649   -0.4917 H   0  0  0  0  0  0  0  0  0  0  0  0
    5.1152    1.6413   -0.4035 H   0  0  0  0  0  0  0  0  0  0  0  0
    1.9934   -2.2536   -1.7800 H   0  0  0  0  0  0  0  0  0  0  0  0
    1.7246   -3.6160   -0.7479 H   0  0  0  0  0  0  0  0  0  0  0  0
  1 15  2  0  0  0  0
  2 11  1  0  0  0  0
  2 12  1  0  0  0  0
  2 31  1  0  0  0  0
  3 12  1  0  0  0  0
  3 16  2  0  0  0  0
  4 15  1  0  0  0  0
  4 35  1  0  0  0  0
  4 36  1  0  0  0  0
  5  6  1  0  0  0  0
  5  7  1  0  0  0  0
  5 11  1  0  0  0  0
  5 18  1  0  0  0  0
  6  8  1  0  0  0  0
  6 19  1  0  0  0  0
  6 20  1  0  0  0  0
  7  9  1  0  0  0  0
  7 21  1  0  0  0  0
  7 22  1  0  0  0  0
  8 10  1  0  0  0  0
  8 23  1  0  0  0  0
  8 24  1  0  0  0  0
  9 10  1  0  0  0  0
  9 25  1  0  0  0  0
  9 26  1  0  0  0  0
 10 27  1  0  0  0  0
 10 28  1  0  0  0  0
 11 29  1  0  0  0  0
 11 30  1  0  0  0  0
 12 13  2  0  0  0  0
 13 14  1  0  0  0  0
 13 15  1  0  0  0  0
 14 17  2  0  0  0  0
 14 32  1  0  0  0  0
 16 17  1  0  0  0  0
 16 33  1  0  0  0  0
 17 34  1  0  0  0  0
M  END
>  <PUBCHEM_COMPOUND_CID>
36545136

>  <PUBCHEM_CONFORMER_RMSD>
0.6

>  <PUBCHEM_CONFORMER_DIVERSEORDER>
1
103
16
93
25
65
62
88
39
104
77
69
99
26
91
2
7
96
85
19
87
29
53
94
66
4
63
18
84
42
58
20
8
98
3
64
48
80
90
57
95
74
76
6
27
9
97
60
83
79
55
71
45
5
89
70
14
35
61
44
56
101
33
68
102
86
92
36
12
41
49
15
37
30
75
10
17
82
22
78
24
52
40
43
34
72
38
51
11
28
81
54
13
67
46
50
32
73
47
23
21
59
31
100

>  <PUBCHEM_MMFF94_PARTIAL_CHARGES>
17
1 -0.57
11 0.37
12 0.41
13 0.09
14 -0.15
15 0.54
16 0.16
17 -0.15
2 -0.87
3 -0.62
31 0.4
32 0.15
33 0.15
34 0.15
35 0.37
36 0.37
4 -0.8

>  <PUBCHEM_EFFECTIVE_ROTOR_COUNT>
5.2

>  <PUBCHEM_PHARMACOPHORE_FEATURES>
7
1 1 acceptor
1 2 cation
1 2 donor
1 3 acceptor
1 4 donor
6 3 12 13 14 16 17 rings
6 5 6 7 8 9 10 rings

>  <PUBCHEM_HEAVY_ATOM_COUNT>
17

>  <PUBCHEM_ATOM_DEF_STEREO_COUNT>
0

>  <PUBCHEM_ATOM_UDEF_STEREO_COUNT>
0

>  <PUBCHEM_BOND_DEF_STEREO_COUNT>
0

>  <PUBCHEM_BOND_UDEF_STEREO_COUNT>
0

>  <PUBCHEM_ISOTOPIC_ATOM_COUNT>
0

>  <PUBCHEM_COMPONENT_COUNT>
1

>  <PUBCHEM_CACTVS_TAUTO_COUNT>
7

>  <PUBCHEM_CONFORMER_ID>
022DA27000000001

>  <PUBCHEM_MMFF94_ENERGY>
46.8094

>  <PUBCHEM_FEATURE_SELFOVERLAP>
35.521

>  <PUBCHEM_SHAPE_FINGERPRINT>
10616163 171 18272089461037141079
11471102 20 18334858333414074548
12107183 9 17765723416928401441
12236239 1 18130790070209508845
13167823 11 18343022194570838997
13533116 47 18272647927461137535
13760787 19 18202004347903995101
13836976 161 18335704983321622788
13862211 1 18262796264774689330
14251717 144 18408884053291777028
14386348 63 17095246917084033209
15375358 24 17676207991680584249
15375462 189 18343019991036507529
15442244 35 18196657284986786721
17492 89 18341615854869973255
17818456 19 17699860514240662913
17834072 33 18341330080593465461
19050596 39 18342738528839197033
19422 9 18344146973485884163
200 152 18342455971741763209
20279233 1 17022623078668184097
20281475 54 18272363170738821303
20645477 70 18409446964506285159
21054139 6 18269828886256837662
2255824 54 18338237166990267836
23402655 69 18411420600700020685
23557571 272 15791724170659301791
23559900 14 17130722573659805509
23598291 2 18270686350823510065
2871803 45 18407757036524749476
300161 21 18272364266050635209
3060560 45 18335704983532755764
33824 294 18334012800403135122
474 4 18261394523970408420
543358 83 18340773637082987377
58051976 378 18408603681810464022
602551 16 15913035582027401957
603831 33 18200866379049302165
633830 44 18340777047530049212
7364860 26 18341054030086544532
77779 3 18341897398391671525
81539 233 18114464543504307518
8272917 22 18412269406459475183
9709674 26 18409455769258034547

>  <PUBCHEM_SHAPE_MULTIPOLES>
329.04
9.96
2.27
0.94
8.12
0.92
0.09
-1.04
-0.38
-2.44
0.03
0.37
0.3
-1.19

>  <PUBCHEM_SHAPE_SELFOVERLAP>
680.943

>  <PUBCHEM_SHAPE_VOLUME>
185.7

>  <PUBCHEM_COORDINATE_TYPE>
2
5
10

$$$$
