36545212
 OpenBabel01182520543D

 35 35  0  0  0  0  0  0  0  0999 V2000
    1.4262   -2.4004   -1.3988 O   0  0  0  0  0  0  0  0  0  0  0  0
    0.1829    0.5932   -0.3529 N   0  0  0  0  0  0  0  0  0  0  0  0
    2.1491    1.7532    0.1768 N   0  0  0  0  0  0  0  0  0  0  0  0
    0.9157   -2.5692    0.8304 N   0  0  0  0  0  0  0  0  0  0  0  0
   -2.7614    0.5979    0.1653 C   0  0  0  0  0  0  0  0  0  0  0  0
   -2.0360    1.4915   -0.8469 C   0  0  0  0  0  0  0  0  0  0  0  0
   -4.2162    0.3626   -0.2493 C   0  0  0  0  0  0  0  0  0  0  0  0
   -0.5998    1.8029   -0.4344 C   0  0  0  0  0  0  0  0  0  0  0  0
   -4.9980   -0.5002    0.7438 C   0  0  0  0  0  0  0  0  0  0  0  0
   -6.4622   -0.6786    0.3729 C   0  0  0  0  0  0  0  0  0  0  0  0
    1.5355    0.5703   -0.0509 C   0  0  0  0  0  0  0  0  0  0  0  0
    2.1756   -0.6576   -0.0029 C   0  0  0  0  0  0  0  0  0  0  0  0
    3.5331   -0.6725    0.2982 C   0  0  0  0  0  0  0  0  0  0  0  0
    1.4876   -1.9161   -0.2563 C   0  0  0  0  0  0  0  0  0  0  0  0
    4.1994    0.5240    0.5387 C   0  0  0  0  0  0  0  0  0  0  0  0
    3.4686    1.6991    0.4664 C   0  0  0  0  0  0  0  0  0  0  0  0
   -2.2547   -0.3698    0.2552 H   0  0  0  0  0  0  0  0  0  0  0  0
   -2.7359    1.0700    1.1549 H   0  0  0  0  0  0  0  0  0  0  0  0
   -2.0406    1.0045   -1.8303 H   0  0  0  0  0  0  0  0  0  0  0  0
   -2.5816    2.4367   -0.9555 H   0  0  0  0  0  0  0  0  0  0  0  0
   -4.2408   -0.1151   -1.2366 H   0  0  0  0  0  0  0  0  0  0  0  0
   -4.7214    1.3310   -0.3537 H   0  0  0  0  0  0  0  0  0  0  0  0
   -0.5986    2.3185    0.5333 H   0  0  0  0  0  0  0  0  0  0  0  0
   -0.1620    2.4819   -1.1758 H   0  0  0  0  0  0  0  0  0  0  0  0
   -4.5260   -1.4871    0.8165 H   0  0  0  0  0  0  0  0  0  0  0  0
   -4.9416   -0.0472    1.7409 H   0  0  0  0  0  0  0  0  0  0  0  0
   -0.1852   -0.2161   -0.8425 H   0  0  0  0  0  0  0  0  0  0  0  0
   -6.9751    0.2875    0.3323 H   0  0  0  0  0  0  0  0  0  0  0  0
   -6.5605   -1.1610   -0.6046 H   0  0  0  0  0  0  0  0  0  0  0  0
   -6.9693   -1.3033    1.1147 H   0  0  0  0  0  0  0  0  0  0  0  0
    4.0823   -1.6090    0.3476 H   0  0  0  0  0  0  0  0  0  0  0  0
    5.2572    0.5365    0.7750 H   0  0  0  0  0  0  0  0  0  0  0  0
    3.9414    2.6591    0.6455 H   0  0  0  0  0  0  0  0  0  0  0  0
    0.9617   -2.1919    1.7715 H   0  0  0  0  0  0  0  0  0  0  0  0
    0.4294   -3.4517    0.7119 H   0  0  0  0  0  0  0  0  0  0  0  0
  1 14  2  0  0  0  0
  2  8  1  0  0  0  0
  2 11  1  0  0  0  0
  2 27  1  0  0  0  0
  3 11  1  0  0  0  0
  3 16  2  0  0  0  0
  4 14  1  0  0  0  0
  4 34  1  0  0  0  0
  4 35  1  0  0  0  0
  5  6  1  0  0  0  0
  5  7  1  0  0  0  0
  5 17  1  0  0  0  0
  5 18  1  0  0  0  0
  6  8  1  0  0  0  0
  6 19  1  0  0  0  0
  6 20  1  0  0  0  0
  7  9  1  0  0  0  0
  7 21  1  0  0  0  0
  7 22  1  0  0  0  0
  8 23  1  0  0  0  0
  8 24  1  0  0  0  0
  9 10  1  0  0  0  0
  9 25  1  0  0  0  0
  9 26  1  0  0  0  0
 10 28  1  0  0  0  0
 10 29  1  0  0  0  0
 10 30  1  0  0  0  0
 11 12  2  0  0  0  0
 12 13  1  0  0  0  0
 12 14  1  0  0  0  0
 13 15  2  0  0  0  0
 13 31  1  0  0  0  0
 15 16  1  0  0  0  0
 15 32  1  0  0  0  0
 16 33  1  0  0  0  0
M  END
>  <PUBCHEM_COMPOUND_CID>
36545212

>  <PUBCHEM_CONFORMER_RMSD>
0.8

>  <PUBCHEM_CONFORMER_DIVERSEORDER>
2
62
56
75
48
76
55
81
78
86
27
87
60
37
31
91
63
83
19
20
64
89
5
82
50
68
4
80
38
29
71
66
42
28
61
51
1
41
93
47
73
17
57
46
69
3
21
85
33
84
65
67
12
13
9
59
77
23
72
26
90
54
88
8
58
30
24
16
70
10
74
53
79
40
7
25
52
11
92
14
44
49
18
45
32
15
43
36
6
22
39
34
35

>  <PUBCHEM_MMFF94_PARTIAL_CHARGES>
17
1 -0.57
11 0.41
12 0.09
13 -0.15
14 0.54
15 -0.15
16 0.16
2 -0.87
27 0.4
3 -0.62
31 0.15
32 0.15
33 0.15
34 0.37
35 0.37
4 -0.8
8 0.37

>  <PUBCHEM_EFFECTIVE_ROTOR_COUNT>
7

>  <PUBCHEM_PHARMACOPHORE_FEATURES>
8
1 1 acceptor
1 10 hydrophobe
1 2 cation
1 2 donor
1 3 acceptor
1 4 donor
4 5 6 7 9 hydrophobe
6 3 11 12 13 15 16 rings

>  <PUBCHEM_HEAVY_ATOM_COUNT>
16

>  <PUBCHEM_ATOM_DEF_STEREO_COUNT>
0

>  <PUBCHEM_ATOM_UDEF_STEREO_COUNT>
0

>  <PUBCHEM_BOND_DEF_STEREO_COUNT>
0

>  <PUBCHEM_BOND_UDEF_STEREO_COUNT>
0

>  <PUBCHEM_ISOTOPIC_ATOM_COUNT>
0

>  <PUBCHEM_COMPONENT_COUNT>
1

>  <PUBCHEM_CACTVS_TAUTO_COUNT>
7

>  <PUBCHEM_CONFORMER_ID>
022DA2BC00000002

>  <PUBCHEM_MMFF94_ENERGY>
40.5805

>  <PUBCHEM_FEATURE_SELFOVERLAP>
40.595

>  <PUBCHEM_SHAPE_FINGERPRINT>
108634 29 18041010565389086131
114674 6 18262808358780557547
12596602 18 17418098745720867579
12841375 5 17559124176788617454
13464513 79 18409451383911432150
13911882 115 18340498819464217779
14252887 29 18340775862129176279
14386348 63 18040438793893903179
14863182 85 18410023138437229423
15048467 5 12967123947984173224
15375358 24 18113898256451071937
15375462 189 18059848459389216769
15635459 17 18334864887739929283
20261772 1 18342172297525564831
20645477 70 18198327490800103717
21197605 99 18122351443770044307
212847 35 11455894654531486689
21637258 2 15575543658305921056
21673915 165 18340205297478697263
221490 88 18194681467155659406
22224240 67 18269829964156446328
23557571 272 16733257959514710229
239999 70 18412832364855261534
2871803 45 18260827068843765139
33824 294 18408884031606054499
465052 167 18186799175828272592
474229 33 18408601491725322184
5104073 3 18339351946973632728
81228 2 17617629478507862608
9709674 26 18335987476216177179

>  <PUBCHEM_SHAPE_MULTIPOLES>
308.46
10.84
2.36
0.89
18.45
1.01
-0.11
0.87
2.85
-1.6
-0.28
0.02
0.22
0.88

>  <PUBCHEM_SHAPE_SELFOVERLAP>
615.265

>  <PUBCHEM_SHAPE_VOLUME>
181.7

>  <PUBCHEM_COORDINATE_TYPE>
2
5
10

$$$$
