36834371
 OpenBabel01182520543D

 36 37  0  0  0  0  0  0  0  0999 V2000
   -2.2317    2.5426    1.0488 O   0  0  0  0  0  0  0  0  0  0  0  0
   -0.2328   -0.1881    0.9179 N   0  0  0  0  0  0  0  0  0  0  0  0
   -1.7241   -1.8380    0.1784 N   0  0  0  0  0  0  0  0  0  0  0  0
   -1.1994    2.5142   -0.9986 N   0  0  0  0  0  0  0  0  0  0  0  0
    2.6852    0.0186    0.3320 C   0  0  0  0  0  0  0  0  0  0  0  0
    4.0486    0.6733    0.5317 C   0  0  0  0  0  0  0  0  0  0  0  0
    2.9946   -1.0726   -0.6879 C   0  0  0  0  0  0  0  0  0  0  0  0
    4.6510    0.7111   -0.8695 C   0  0  0  0  0  0  0  0  0  0  0  0
    3.9639   -0.4051   -1.6581 C   0  0  0  0  0  0  0  0  0  0  0  0
    2.0842   -0.5179    1.6194 C   0  0  0  0  0  0  0  0  0  0  0  0
    0.7134   -1.1578    1.4148 C   0  0  0  0  0  0  0  0  0  0  0  0
   -1.4326   -0.5244    0.3108 C   0  0  0  0  0  0  0  0  0  0  0  0
   -2.2569    0.5007   -0.1247 C   0  0  0  0  0  0  0  0  0  0  0  0
   -3.4576    0.1556   -0.7352 C   0  0  0  0  0  0  0  0  0  0  0  0
   -1.9138    1.9077    0.0293 C   0  0  0  0  0  0  0  0  0  0  0  0
   -2.8996   -2.1348   -0.4197 C   0  0  0  0  0  0  0  0  0  0  0  0
   -3.7925   -1.1851   -0.8894 C   0  0  0  0  0  0  0  0  0  0  0  0
    2.0123    0.7580   -0.1228 H   0  0  0  0  0  0  0  0  0  0  0  0
    4.6818    0.0648    1.1892 H   0  0  0  0  0  0  0  0  0  0  0  0
    3.9715    1.6724    0.9717 H   0  0  0  0  0  0  0  0  0  0  0  0
    2.1009   -1.4358   -1.2045 H   0  0  0  0  0  0  0  0  0  0  0  0
    3.4823   -1.9312   -0.2099 H   0  0  0  0  0  0  0  0  0  0  0  0
    5.7373    0.5787   -0.8387 H   0  0  0  0  0  0  0  0  0  0  0  0
    4.4518    1.6783   -1.3453 H   0  0  0  0  0  0  0  0  0  0  0  0
    3.4187    0.0233   -2.5072 H   0  0  0  0  0  0  0  0  0  0  0  0
    4.6848   -1.1241   -2.0601 H   0  0  0  0  0  0  0  0  0  0  0  0
    2.7552   -1.2598    2.0700 H   0  0  0  0  0  0  0  0  0  0  0  0
    1.9968    0.3026    2.3433 H   0  0  0  0  0  0  0  0  0  0  0  0
    0.8072   -2.0077    0.7291 H   0  0  0  0  0  0  0  0  0  0  0  0
    0.3540   -1.5542    2.3715 H   0  0  0  0  0  0  0  0  0  0  0  0
   -0.1581    0.7479    1.3027 H   0  0  0  0  0  0  0  0  0  0  0  0
   -4.1398    0.9214   -1.0948 H   0  0  0  0  0  0  0  0  0  0  0  0
   -3.1139   -3.1941   -0.5158 H   0  0  0  0  0  0  0  0  0  0  0  0
   -4.7230   -1.4775   -1.3622 H   0  0  0  0  0  0  0  0  0  0  0  0
   -0.9236    2.0089   -1.8347 H   0  0  0  0  0  0  0  0  0  0  0  0
   -0.9285    3.4902   -0.9406 H   0  0  0  0  0  0  0  0  0  0  0  0
  1 15  2  0  0  0  0
  2 11  1  0  0  0  0
  2 12  1  0  0  0  0
  2 31  1  0  0  0  0
  3 12  1  0  0  0  0
  3 16  2  0  0  0  0
  4 15  1  0  0  0  0
  4 35  1  0  0  0  0
  4 36  1  0  0  0  0
  5  6  1  0  0  0  0
  5  7  1  0  0  0  0
  5 10  1  0  0  0  0
  5 18  1  0  0  0  0
  6  8  1  0  0  0  0
  6 19  1  0  0  0  0
  6 20  1  0  0  0  0
  7  9  1  0  0  0  0
  7 21  1  0  0  0  0
  7 22  1  0  0  0  0
  8  9  1  0  0  0  0
  8 23  1  0  0  0  0
  8 24  1  0  0  0  0
  9 25  1  0  0  0  0
  9 26  1  0  0  0  0
 10 11  1  0  0  0  0
 10 27  1  0  0  0  0
 10 28  1  0  0  0  0
 11 29  1  0  0  0  0
 11 30  1  0  0  0  0
 12 13  2  0  0  0  0
 13 14  1  0  0  0  0
 13 15  1  0  0  0  0
 14 17  2  0  0  0  0
 14 32  1  0  0  0  0
 16 17  1  0  0  0  0
 16 33  1  0  0  0  0
 17 34  1  0  0  0  0
M  END
>  <PUBCHEM_COMPOUND_CID>
36834371

>  <PUBCHEM_CONFORMER_RMSD>
0.8

>  <PUBCHEM_CONFORMER_DIVERSEORDER>
1
21
11
36
33
41
45
51
30
2
47
12
8
26
49
14
15
44
54
38
40
5
19
6
56
28
46
4
3
34
10
39
37
50
52
13
25
18
23
32
17
16
48
9
35
7
27
20
53
55
42
43
22
29
24
31

>  <PUBCHEM_MMFF94_PARTIAL_CHARGES>
17
1 -0.57
11 0.37
12 0.41
13 0.09
14 -0.15
15 0.54
16 0.16
17 -0.15
2 -0.87
3 -0.62
31 0.4
32 0.15
33 0.15
34 0.15
35 0.37
36 0.37
4 -0.8

>  <PUBCHEM_EFFECTIVE_ROTOR_COUNT>
6

>  <PUBCHEM_PHARMACOPHORE_FEATURES>
7
1 1 acceptor
1 2 cation
1 2 donor
1 3 acceptor
1 4 donor
5 5 6 7 8 9 rings
6 3 12 13 14 16 17 rings

>  <PUBCHEM_HEAVY_ATOM_COUNT>
17

>  <PUBCHEM_ATOM_DEF_STEREO_COUNT>
0

>  <PUBCHEM_ATOM_UDEF_STEREO_COUNT>
0

>  <PUBCHEM_BOND_DEF_STEREO_COUNT>
0

>  <PUBCHEM_BOND_UDEF_STEREO_COUNT>
0

>  <PUBCHEM_ISOTOPIC_ATOM_COUNT>
0

>  <PUBCHEM_COMPONENT_COUNT>
1

>  <PUBCHEM_CACTVS_TAUTO_COUNT>
7

>  <PUBCHEM_CONFORMER_ID>
02320C4300000001

>  <PUBCHEM_MMFF94_ENERGY>
51.4175

>  <PUBCHEM_FEATURE_SELFOVERLAP>
35.521

>  <PUBCHEM_SHAPE_FINGERPRINT>
10498660 4 18335130994811672597
10871710 139 17967537839413666509
11137873 295 16128377030113141618
11578080 2 12462708582815715035
11640471 11 17458059352801574266
11715629 250 18335419024356882688
11759241 127 18128244787233963388
12173636 292 18198053677913426501
12596599 1 18340775857850631060
12670546 177 18272375317006639164
12707595 3 16056593240731087194
14123260 362 17531256058186865246
14251764 38 18337954623158063976
14420673 8 9582426922588777748
15342168 16 16443355251361567574
15475509 8 18131355190086688085
17134986 127 17616528463362140221
192875 21 17313374648025783980
19433438 38 17988927760617093486
20300324 65 18409730685798234300
20645477 70 15482663576878979448
20871999 31 18202005416976272952
212916 134 8502112750379142287
21713013 43 17560809835561766734
21864079 5 17386298601439421084
22094290 60 18273217507952351459
22926399 37 17385719214339884207
23402539 116 18261945354016379958
23419403 2 16591709224857062097
235170 7 17917439739377354500
23557571 272 18341609377610352442
23559900 14 18272083877647669038
238078 22 18189617310077600795
27216 239 13551479197553102095
312423 11 18114461145879676482
3268164 11 18410568496325814964
4028521 119 18187079546587002924
465052 167 13901344953353448415
474 4 16805319985737393098
5262128 65 18339937016293321596
6049 1 17561073718104461416
7615 1 17968923189852144618
84936 31 16698056205345325233

>  <PUBCHEM_SHAPE_MULTIPOLES>
329.04
8.55
2.22
1.4
6.07
1.09
0.09
-0.36
-3.27
-2.4
-0.03
0.97
-0.12
-0.39

>  <PUBCHEM_SHAPE_SELFOVERLAP>
682.455

>  <PUBCHEM_SHAPE_VOLUME>
187.9

>  <PUBCHEM_COORDINATE_TYPE>
2
5
10

$$$$
