379035
 OpenBabel01182520543D

 20 21  0  0  0  0  0  0  0  0999 V2000
   -0.0567    2.7373   -0.6014 O   0  0  0  0  0  0  0  0  0  0  0  0
    1.6144    1.4482    0.2602 N   0  0  0  0  0  0  0  0  0  0  0  0
    2.0406    0.2805    0.8407 N   0  0  0  0  0  0  0  0  0  0  0  0
    0.8926   -1.3305   -0.5174 N   0  0  0  0  0  0  0  0  0  0  0  0
   -1.3331   -1.7537   -0.1487 N   0  0  0  0  0  0  0  0  0  0  0  0
    3.1864   -1.4465   -0.1231 N   0  0  0  0  0  0  0  0  0  0  0  0
   -0.6688    0.5571   -0.0340 C   0  0  0  0  0  0  0  0  0  0  0  0
   -0.3721   -0.7950   -0.2160 C   0  0  0  0  0  0  0  0  0  0  0  0
    0.3167    1.6555   -0.1475 C   0  0  0  0  0  0  0  0  0  0  0  0
   -1.9983    0.9161    0.2251 C   0  0  0  0  0  0  0  0  0  0  0  0
    1.9632   -0.8408    0.0436 C   0  0  0  0  0  0  0  0  0  0  0  0
   -2.9832   -0.0585    0.3062 C   0  0  0  0  0  0  0  0  0  0  0  0
   -2.6016   -1.3695    0.1124 C   0  0  0  0  0  0  0  0  0  0  0  0
   -2.2813    1.9555    0.3725 H   0  0  0  0  0  0  0  0  0  0  0  0
    2.3200    2.1742    0.1955 H   0  0  0  0  0  0  0  0  0  0  0  0
    2.8470    0.4044    1.4461 H   0  0  0  0  0  0  0  0  0  0  0  0
   -4.0148    0.2029    0.5108 H   0  0  0  0  0  0  0  0  0  0  0  0
   -3.3272   -2.1745    0.1606 H   0  0  0  0  0  0  0  0  0  0  0  0
    3.2837   -2.2850   -0.6854 H   0  0  0  0  0  0  0  0  0  0  0  0
    4.0259   -1.0708    0.3040 H   0  0  0  0  0  0  0  0  0  0  0  0
  1  9  2  0  0  0  0
  2  3  1  0  0  0  0
  2  9  1  0  0  0  0
  2 15  1  0  0  0  0
  3 11  1  0  0  0  0
  3 16  1  0  0  0  0
  4  8  1  0  0  0  0
  4 11  2  0  0  0  0
  5  8  1  0  0  0  0
  5 13  2  0  0  0  0
  6 11  1  0  0  0  0
  6 19  1  0  0  0  0
  6 20  1  0  0  0  0
  7  8  2  0  0  0  0
  7  9  1  0  0  0  0
  7 10  1  0  0  0  0
 10 12  2  0  0  0  0
 10 14  1  0  0  0  0
 12 13  1  0  0  0  0
 12 17  1  0  0  0  0
 13 18  1  0  0  0  0
M  END
>  <PUBCHEM_COMPOUND_CID>
379035

>  <PUBCHEM_CONFORMER_RMSD>
0.4

>  <PUBCHEM_CONFORMER_DIVERSEORDER>
1
2

>  <PUBCHEM_MMFF94_PARTIAL_CHARGES>
20
1 -0.57
10 -0.15
11 0.55
12 -0.15
13 0.16
14 0.15
15 0.37
16 0.4
17 0.15
18 0.15
19 0.4
2 -0.41
20 0.4
3 -0.47
4 -0.63
5 -0.62
6 -0.85
7 0.09
8 0.49
9 0.54

>  <PUBCHEM_EFFECTIVE_ROTOR_COUNT>
0.4

>  <PUBCHEM_PHARMACOPHORE_FEATURES>
8
1 1 acceptor
1 2 donor
1 3 donor
1 5 acceptor
1 6 donor
4 3 4 6 11 cation
6 5 7 8 10 12 13 rings
7 2 3 4 7 8 9 11 rings

>  <PUBCHEM_HEAVY_ATOM_COUNT>
13

>  <PUBCHEM_ATOM_DEF_STEREO_COUNT>
0

>  <PUBCHEM_ATOM_UDEF_STEREO_COUNT>
0

>  <PUBCHEM_BOND_DEF_STEREO_COUNT>
0

>  <PUBCHEM_BOND_UDEF_STEREO_COUNT>
0

>  <PUBCHEM_ISOTOPIC_ATOM_COUNT>
0

>  <PUBCHEM_COMPONENT_COUNT>
1

>  <PUBCHEM_CACTVS_TAUTO_COUNT>
12

>  <PUBCHEM_CONFORMER_ID>
0005C89B00000001

>  <PUBCHEM_MMFF94_ENERGY>
56.206

>  <PUBCHEM_FEATURE_SELFOVERLAP>
42.21

>  <PUBCHEM_SHAPE_FINGERPRINT>
12138202 97 17609487233673436685
12524768 44 18413669097657241167
12696612 119 18338521961865506163
16945 1 18341614750566882355
17990270 104 18264488562543833795
193761 8 17978513366287248223
19973954 147 18339082712927677227
20511035 2 18128819818571510271
20588541 1 18126289640289043447
21130352 189 18409164394233571773
21501502 16 18340210807705174351
2334 1 18339079396901545367
23388829 49 17767388450783558399
23463225 33 18410012152105824112
23552423 10 18049164659436362231
23559900 14 17263000256997473590
241688 4 18409449154696824753
2748010 2 18411414024935798319
2897 32 17689715680890374181
5084963 1 18201719552611713571
528862 383 18046902959527971745
7364860 26 18126007302103189920

>  <PUBCHEM_SHAPE_MULTIPOLES>
236.76
3.95
2.26
0.69
0.1
0.95
0.03
-1.67
0.51
0.28
-0.37
0.06
0.06
0.09

>  <PUBCHEM_SHAPE_SELFOVERLAP>
514.284

>  <PUBCHEM_SHAPE_VOLUME>
125.6

>  <PUBCHEM_COORDINATE_TYPE>
2
5
10

$$$$
