42943682
 OpenBabel01182520543D

 36 37  0  0  1  0  0  0  0  0999 V2000
    0.7612   -2.3975   -1.1380 O   0  0  0  0  0  0  0  0  0  0  0  0
   -0.3943    0.6095   -0.0193 N   0  0  0  0  0  0  0  0  0  0  0  0
    1.6062    1.8454    0.1039 N   0  0  0  0  0  0  0  0  0  0  0  0
    0.6563   -2.4711    1.1515 N   0  0  0  0  0  0  0  0  0  0  0  0
   -2.5457   -0.0893    0.9694 C   0  0  1  0  0  0  0  0  0  0  0  0
   -2.4043    0.6477   -1.4639 C   0  0  1  0  0  0  0  0  0  0  0  0
   -3.2682    0.5970   -0.1968 C   0  0  0  0  0  0  0  0  0  0  0  0
   -1.1726    0.5515    1.2226 C   0  0  0  0  0  0  0  0  0  0  0  0
   -1.0370    1.2752   -1.1611 C   0  0  0  0  0  0  0  0  0  0  0  0
   -3.4019   -0.0421    2.2344 C   0  0  0  0  0  0  0  0  0  0  0  0
   -2.2512   -0.7316   -2.1126 C   0  0  0  0  0  0  0  0  0  0  0  0
    1.0032    0.6370    0.0397 C   0  0  0  0  0  0  0  0  0  0  0  0
    1.6838   -0.5698    0.0265 C   0  0  0  0  0  0  0  0  0  0  0  0
    3.0726   -0.5345    0.0829 C   0  0  0  0  0  0  0  0  0  0  0  0
    1.0056   -1.8567   -0.0464 C   0  0  0  0  0  0  0  0  0  0  0  0
    2.9571    1.8400    0.1573 C   0  0  0  0  0  0  0  0  0  0  0  0
    3.7292    0.6895    0.1497 C   0  0  0  0  0  0  0  0  0  0  0  0
   -2.3925   -1.1457    0.7147 H   0  0  0  0  0  0  0  0  0  0  0  0
   -2.9142    1.2881   -2.1955 H   0  0  0  0  0  0  0  0  0  0  0  0
   -4.2138    0.0827   -0.4083 H   0  0  0  0  0  0  0  0  0  0  0  0
   -3.5294    1.6240    0.0913 H   0  0  0  0  0  0  0  0  0  0  0  0
   -1.2892    1.5685    1.6189 H   0  0  0  0  0  0  0  0  0  0  0  0
   -0.6407   -0.0284    1.9865 H   0  0  0  0  0  0  0  0  0  0  0  0
   -0.4021    1.2108   -2.0543 H   0  0  0  0  0  0  0  0  0  0  0  0
   -1.1604    2.3412   -0.9307 H   0  0  0  0  0  0  0  0  0  0  0  0
   -2.9029   -0.5608    3.0598 H   0  0  0  0  0  0  0  0  0  0  0  0
   -4.3681   -0.5297    2.0674 H   0  0  0  0  0  0  0  0  0  0  0  0
   -3.5927    0.9896    2.5487 H   0  0  0  0  0  0  0  0  0  0  0  0
   -1.7494   -1.4475   -1.4572 H   0  0  0  0  0  0  0  0  0  0  0  0
   -1.6697   -0.6601   -3.0379 H   0  0  0  0  0  0  0  0  0  0  0  0
   -3.2326   -1.1450   -2.3690 H   0  0  0  0  0  0  0  0  0  0  0  0
    3.6539   -1.4528    0.0746 H   0  0  0  0  0  0  0  0  0  0  0  0
    3.4208    2.8197    0.2083 H   0  0  0  0  0  0  0  0  0  0  0  0
    4.8110    0.7413    0.1942 H   0  0  0  0  0  0  0  0  0  0  0  0
    0.8566   -2.0493    2.0527 H   0  0  0  0  0  0  0  0  0  0  0  0
    0.1857   -3.3699    1.1589 H   0  0  0  0  0  0  0  0  0  0  0  0
  1 15  2  0  0  0  0
  2  8  1  0  0  0  0
  2  9  1  0  0  0  0
  2 12  1  0  0  0  0
  3 12  1  0  0  0  0
  3 16  2  0  0  0  0
  4 15  1  0  0  0  0
  4 35  1  0  0  0  0
  4 36  1  0  0  0  0
  5  7  1  0  0  0  0
  5  8  1  0  0  0  0
  5 10  1  0  0  0  0
  5 18  1  6  0  0  0
  6  7  1  0  0  0  0
  6  9  1  0  0  0  0
  6 11  1  0  0  0  0
  6 19  1  6  0  0  0
  7 20  1  0  0  0  0
  7 21  1  0  0  0  0
  8 22  1  0  0  0  0
  8 23  1  0  0  0  0
  9 24  1  0  0  0  0
  9 25  1  0  0  0  0
 10 26  1  0  0  0  0
 10 27  1  0  0  0  0
 10 28  1  0  0  0  0
 11 29  1  0  0  0  0
 11 30  1  0  0  0  0
 11 31  1  0  0  0  0
 12 13  2  0  0  0  0
 13 14  1  0  0  0  0
 13 15  1  0  0  0  0
 14 17  2  0  0  0  0
 14 32  1  0  0  0  0
 16 17  1  0  0  0  0
 16 33  1  0  0  0  0
 17 34  1  0  0  0  0
M  END
>  <PUBCHEM_COMPOUND_CID>
42943682

>  <PUBCHEM_CONFORMER_RMSD>
0.6

>  <PUBCHEM_CONFORMER_DIVERSEORDER>
1
3
22
20
19
29
33
4
24
5
28
8
32
17
30
27
15
31
12
11
26
23
25
2
21
10
13
18
14
7
9
6
16

>  <PUBCHEM_MMFF94_PARTIAL_CHARGES>
17
1 -0.57
12 0.41
13 0.09
14 -0.15
15 0.54
16 0.16
17 -0.15
2 -0.84
3 -0.62
32 0.15
33 0.15
34 0.15
35 0.37
36 0.37
4 -0.8
8 0.37
9 0.37

>  <PUBCHEM_EFFECTIVE_ROTOR_COUNT>
3.2

>  <PUBCHEM_PHARMACOPHORE_FEATURES>
6
1 1 acceptor
1 2 cation
1 3 acceptor
1 4 donor
6 2 5 6 7 8 9 rings
6 3 12 13 14 16 17 rings

>  <PUBCHEM_HEAVY_ATOM_COUNT>
17

>  <PUBCHEM_ATOM_DEF_STEREO_COUNT>
0

>  <PUBCHEM_ATOM_UDEF_STEREO_COUNT>
2

>  <PUBCHEM_BOND_DEF_STEREO_COUNT>
0

>  <PUBCHEM_BOND_UDEF_STEREO_COUNT>
0

>  <PUBCHEM_ISOTOPIC_ATOM_COUNT>
0

>  <PUBCHEM_COMPONENT_COUNT>
1

>  <PUBCHEM_CACTVS_TAUTO_COUNT>
2

>  <PUBCHEM_CONFORMER_ID>
028F44C200000001

>  <PUBCHEM_MMFF94_ENERGY>
62.5809

>  <PUBCHEM_FEATURE_SELFOVERLAP>
30.446

>  <PUBCHEM_SHAPE_FINGERPRINT>
107287 299 18334299742715022908
107951 10 14376793048285285791
11582403 64 16452847438318481677
12138202 97 16950830441062551943
12202030 40 17459767920840792131
12236239 1 17561082505486495441
12491281 212 17203333350721326210
12596599 1 17918275350591392518
13296909 8 14490458807584763709
13538477 17 17131826564980701085
13583140 156 16734926051751176504
14787075 74 16479617363999721621
14817 1 8996416563630767111
15219456 202 18113337492161419473
15279307 12 17632295657667539295
15309172 13 18410295847596646040
15375358 24 17894345558424301949
15775835 57 18341323465895547436
15852999 172 16444168851633201719
16752209 62 16486392331971142013
16945 1 18271252637834521636
18175812 5 17822292400597038820
18186145 218 18201721782021668764
19049666 15 17751637637578287441
19422 9 17346598581896562100
20201158 50 18114178580001974865
20645477 70 18339914901474708879
21160774 45 18120931969403987679
21618674 53 17274836790899037361
22802520 49 17751071401932732325
23236772 104 17632294601079041441
23402539 116 16370722682020802843
23557571 272 16732991894775032035
23559900 14 16878215360723160632
23728640 28 15166572267485659291
2748010 2 18186518821669506724
4340502 62 18341345461182764651
474 4 17559097999111063712
53748568 43 17703792513554636501
568465 68 18261967317930603409
5845 1 17024905630648597273
633830 44 17988097659097211196
77492 1 17561080306452670872
81228 2 17543903963779530642
8272917 22 18128546968363792633

>  <PUBCHEM_SHAPE_MULTIPOLES>
329.04
5.71
2.04
1.69
0.52
1.03
0.03
-1.48
-1.01
1.38
0.13
-2.23
0.29
0.2

>  <PUBCHEM_SHAPE_SELFOVERLAP>
685.057

>  <PUBCHEM_SHAPE_VOLUME>
185.9

>  <PUBCHEM_COORDINATE_TYPE>
2
5
10

$$$$
