43137144
 OpenBabel01182520543D

 37 37  0  0  1  0  0  0  0  0999 V2000
   -0.3364   -1.4392   -2.2457 O   0  0  0  0  0  0  0  0  0  0  0  0
    0.3971    0.9135    0.1155 N   0  0  0  0  0  0  0  0  0  0  0  0
   -1.0388    0.2567    1.8656 N   0  0  0  0  0  0  0  0  0  0  0  0
    3.8719   -2.4876    0.7268 N   0  0  0  0  0  0  0  0  0  0  0  0
   -1.6396    0.4077   -2.6321 N   0  0  0  0  0  0  0  0  0  0  0  0
    0.4534    2.3663    0.2867 C   0  0  0  0  0  0  0  0  0  0  0  0
    1.5139    0.2484   -0.5125 C   0  0  0  0  0  0  0  0  0  0  0  0
    2.1381   -0.7796    0.4285 C   0  0  0  0  0  0  0  0  0  0  0  0
   -0.7281    0.1996    0.5512 C   0  0  0  0  0  0  0  0  0  0  0  0
    0.5667    3.0287   -1.0800 C   0  0  0  0  0  0  0  0  0  0  0  0
    1.6343    2.7280    1.1783 C   0  0  0  0  0  0  0  0  0  0  0  0
    3.3255   -1.5073   -0.2050 C   0  0  0  0  0  0  0  0  0  0  0  0
   -1.4519   -0.5191   -0.3866 C   0  0  0  0  0  0  0  0  0  0  0  0
   -2.5667   -1.2243    0.0530 C   0  0  0  0  0  0  0  0  0  0  0  0
   -1.0921   -0.5608   -1.7973 C   0  0  0  0  0  0  0  0  0  0  0  0
   -2.1288   -0.4414    2.2558 C   0  0  0  0  0  0  0  0  0  0  0  0
   -2.9185   -1.1898    1.3978 C   0  0  0  0  0  0  0  0  0  0  0  0
   -0.4653    2.7283    0.7661 H   0  0  0  0  0  0  0  0  0  0  0  0
    1.2912   -0.1836   -1.4828 H   0  0  0  0  0  0  0  0  0  0  0  0
    2.3105    0.9622   -0.7525 H   0  0  0  0  0  0  0  0  0  0  0  0
    1.3875   -1.5256    0.7198 H   0  0  0  0  0  0  0  0  0  0  0  0
    2.4590   -0.2828    1.3536 H   0  0  0  0  0  0  0  0  0  0  0  0
    1.4972    2.7862   -1.6023 H   0  0  0  0  0  0  0  0  0  0  0  0
   -0.2651    2.7368   -1.7285 H   0  0  0  0  0  0  0  0  0  0  0  0
    0.5327    4.1188   -0.9739 H   0  0  0  0  0  0  0  0  0  0  0  0
    2.6039    2.5128    0.7189 H   0  0  0  0  0  0  0  0  0  0  0  0
    1.5875    2.1856    2.1291 H   0  0  0  0  0  0  0  0  0  0  0  0
    1.6192    3.7994    1.4071 H   0  0  0  0  0  0  0  0  0  0  0  0
    4.1066   -0.7897   -0.4786 H   0  0  0  0  0  0  0  0  0  0  0  0
    3.0071   -2.0208   -1.1186 H   0  0  0  0  0  0  0  0  0  0  0  0
   -3.1686   -1.8039   -0.6420 H   0  0  0  0  0  0  0  0  0  0  0  0
    4.1964   -2.0158    1.5700 H   0  0  0  0  0  0  0  0  0  0  0  0
    4.6923   -2.9272    0.3117 H   0  0  0  0  0  0  0  0  0  0  0  0
   -2.3604   -0.3820    3.3141 H   0  0  0  0  0  0  0  0  0  0  0  0
   -3.7833   -1.7318    1.7629 H   0  0  0  0  0  0  0  0  0  0  0  0
   -2.2642    1.1282   -2.2844 H   0  0  0  0  0  0  0  0  0  0  0  0
   -1.4264    0.4228   -3.6238 H   0  0  0  0  0  0  0  0  0  0  0  0
  1 15  2  0  0  0  0
  2  6  1  0  0  0  0
  2  7  1  0  0  0  0
  2  9  1  0  0  0  0
  3  9  1  0  0  0  0
  3 16  2  0  0  0  0
  4 12  1  0  0  0  0
  4 32  1  0  0  0  0
  4 33  1  0  0  0  0
  5 15  1  0  0  0  0
  5 36  1  0  0  0  0
  5 37  1  0  0  0  0
  6 10  1  0  0  0  0
  6 11  1  0  0  0  0
  6 18  1  0  0  0  0
  7  8  1  0  0  0  0
  7 19  1  0  0  0  0
  7 20  1  0  0  0  0
  8 12  1  0  0  0  0
  8 21  1  0  0  0  0
  8 22  1  0  0  0  0
  9 13  2  0  0  0  0
 10 23  1  0  0  0  0
 10 24  1  0  0  0  0
 10 25  1  0  0  0  0
 11 26  1  0  0  0  0
 11 27  1  0  0  0  0
 11 28  1  0  0  0  0
 12 29  1  0  0  0  0
 12 30  1  0  0  0  0
 13 14  1  0  0  0  0
 13 15  1  0  0  0  0
 14 17  2  0  0  0  0
 14 31  1  0  0  0  0
 16 17  1  0  0  0  0
 16 34  1  0  0  0  0
 17 35  1  0  0  0  0
M  END
>  <PUBCHEM_COMPOUND_CID>
43137144

>  <PUBCHEM_CONFORMER_RMSD>
0.8

>  <PUBCHEM_CONFORMER_DIVERSEORDER>
3
42
1
29
18
5
17
11
40
13
15
8
31
25
28
10
22
16
37
33
26
27
23
38
24
14
2
20
6
43
32
12
35
4
39
36
9
30
19
34
7
21
41

>  <PUBCHEM_MMFF94_PARTIAL_CHARGES>
21
1 -0.57
12 0.27
13 0.09
14 -0.15
15 0.54
16 0.16
17 -0.15
2 -0.84
3 -0.62
31 0.15
32 0.36
33 0.36
34 0.15
35 0.15
36 0.37
37 0.37
4 -0.99
5 -0.8
6 0.37
7 0.37
9 0.41

>  <PUBCHEM_EFFECTIVE_ROTOR_COUNT>
6

>  <PUBCHEM_PHARMACOPHORE_FEATURES>
8
1 1 acceptor
1 2 cation
1 3 acceptor
1 4 cation
1 4 donor
1 5 donor
3 6 10 11 hydrophobe
6 3 9 13 14 16 17 rings

>  <PUBCHEM_HEAVY_ATOM_COUNT>
17

>  <PUBCHEM_ATOM_DEF_STEREO_COUNT>
0

>  <PUBCHEM_ATOM_UDEF_STEREO_COUNT>
0

>  <PUBCHEM_BOND_DEF_STEREO_COUNT>
0

>  <PUBCHEM_BOND_UDEF_STEREO_COUNT>
0

>  <PUBCHEM_ISOTOPIC_ATOM_COUNT>
0

>  <PUBCHEM_COMPONENT_COUNT>
1

>  <PUBCHEM_CACTVS_TAUTO_COUNT>
2

>  <PUBCHEM_CONFORMER_ID>
0292387800000003

>  <PUBCHEM_MMFF94_ENERGY>
61.7004

>  <PUBCHEM_FEATURE_SELFOVERLAP>
40.595

>  <PUBCHEM_SHAPE_FINGERPRINT>
12202030 40 17677050256063013202
12423570 1 12417606345297592184
12716301 132 16681246472042158944
13538477 17 17200522011253243855
13898156 1 17273697769703522765
14817 1 15243604292412919541
14863182 85 16528667750172888075
15881359 60 17916589704792633149
16945 1 16263797564015824257
18915476 22 18192413384820131812
19765921 60 17123675026069317625
20361792 2 18411983546469030074
20645476 183 17556593358903766671
21061003 4 18408326574979309842
22112679 90 16485844916333960303
22802520 49 16660365887094938331
229495 10 18124584551800829943
2306618 200 16984872317770815674
23419403 2 18260258668223560373
23526113 38 17895736466134028620
23557571 272 16009317629244103294
23598288 3 18123479267826698254
23728640 28 17403717970726791058
430814 3 17339314485014210381
4340502 62 17692530426795543595
5845 1 11264869120921544231
68419 9 17130148842995585845
6992083 37 17775564221710898966
81228 2 17977079298646317080
84936 31 17463716511719211820

>  <PUBCHEM_SHAPE_MULTIPOLES>
324.06
4.36
2.85
2.22
1.27
1.45
-0.87
-3.61
1.64
3.34
0.2
-1.55
0.01
0.09

>  <PUBCHEM_SHAPE_SELFOVERLAP>
655.183

>  <PUBCHEM_SHAPE_VOLUME>
189.8

>  <PUBCHEM_COORDINATE_TYPE>
2
5
10

$$$$
