43167671
 OpenBabel01182520543D

 32 33  0  0  0  0  0  0  0  0999 V2000
    4.9613   -0.7099   -0.5443 O   0  0  0  0  0  0  0  0  0  0  0  0
   -4.6862    0.1730   -0.8274 N   0  0  0  0  0  0  0  0  0  0  0  0
   -1.2967   -0.6630    0.3272 N   0  0  0  0  0  0  0  0  0  0  0  0
    0.5574    0.7695    0.5334 N   0  0  0  0  0  0  0  0  0  0  0  0
    4.6564    1.4390    0.1960 N   0  0  0  0  0  0  0  0  0  0  0  0
   -2.2317    0.3503    0.7743 C   0  0  0  0  0  0  0  0  0  0  0  0
   -3.5101   -0.3117    1.2925 C   0  0  0  0  0  0  0  0  0  0  0  0
   -2.5451    1.3247   -0.3637 C   0  0  0  0  0  0  0  0  0  0  0  0
   -4.3818   -0.8604    0.1618 C   0  0  0  0  0  0  0  0  0  0  0  0
   -3.4664    0.7167   -1.4232 C   0  0  0  0  0  0  0  0  0  0  0  0
    0.0634   -0.4476    0.2132 C   0  0  0  0  0  0  0  0  0  0  0  0
    0.8388   -1.5079   -0.2275 C   0  0  0  0  0  0  0  0  0  0  0  0
    2.2094   -1.3064   -0.3473 C   0  0  0  0  0  0  0  0  0  0  0  0
    2.7549   -0.0680   -0.0273 C   0  0  0  0  0  0  0  0  0  0  0  0
    1.8939    0.9279    0.4044 C   0  0  0  0  0  0  0  0  0  0  0  0
    4.1824    0.1737   -0.1420 C   0  0  0  0  0  0  0  0  0  0  0  0
   -1.7892    0.9031    1.6130 H   0  0  0  0  0  0  0  0  0  0  0  0
   -3.2683   -1.1208    1.9926 H   0  0  0  0  0  0  0  0  0  0  0  0
   -4.0904    0.4312    1.8557 H   0  0  0  0  0  0  0  0  0  0  0  0
   -3.0416    2.2071    0.0621 H   0  0  0  0  0  0  0  0  0  0  0  0
   -1.6311    1.6886   -0.8466 H   0  0  0  0  0  0  0  0  0  0  0  0
   -3.9015   -1.7192   -0.3216 H   0  0  0  0  0  0  0  0  0  0  0  0
   -5.3232   -1.2260    0.5870 H   0  0  0  0  0  0  0  0  0  0  0  0
   -3.7426    1.4945   -2.1437 H   0  0  0  0  0  0  0  0  0  0  0  0
   -2.9401   -0.0642   -1.9855 H   0  0  0  0  0  0  0  0  0  0  0  0
   -5.2700   -0.2262   -1.5618 H   0  0  0  0  0  0  0  0  0  0  0  0
   -1.6752   -1.4567   -0.1794 H   0  0  0  0  0  0  0  0  0  0  0  0
    0.4083   -2.4729   -0.4753 H   0  0  0  0  0  0  0  0  0  0  0  0
    2.8327   -2.1273   -0.6912 H   0  0  0  0  0  0  0  0  0  0  0  0
    2.2101    1.9264    0.6785 H   0  0  0  0  0  0  0  0  0  0  0  0
    4.0906    2.2108    0.5255 H   0  0  0  0  0  0  0  0  0  0  0  0
    5.6490    1.6371    0.1186 H   0  0  0  0  0  0  0  0  0  0  0  0
  1 16  2  0  0  0  0
  2  9  1  0  0  0  0
  2 10  1  0  0  0  0
  2 26  1  0  0  0  0
  3  6  1  0  0  0  0
  3 11  1  0  0  0  0
  3 27  1  0  0  0  0
  4 11  2  0  0  0  0
  4 15  1  0  0  0  0
  5 16  1  0  0  0  0
  5 31  1  0  0  0  0
  5 32  1  0  0  0  0
  6  7  1  0  0  0  0
  6  8  1  0  0  0  0
  6 17  1  0  0  0  0
  7  9  1  0  0  0  0
  7 18  1  0  0  0  0
  7 19  1  0  0  0  0
  8 10  1  0  0  0  0
  8 20  1  0  0  0  0
  8 21  1  0  0  0  0
  9 22  1  0  0  0  0
  9 23  1  0  0  0  0
 10 24  1  0  0  0  0
 10 25  1  0  0  0  0
 11 12  1  0  0  0  0
 12 13  2  0  0  0  0
 12 28  1  0  0  0  0
 13 14  1  0  0  0  0
 13 29  1  0  0  0  0
 14 15  2  0  0  0  0
 14 16  1  0  0  0  0
 15 30  1  0  0  0  0
M  END
>  <PUBCHEM_COMPOUND_CID>
43167671

>  <PUBCHEM_CONFORMER_RMSD>
0.6

>  <PUBCHEM_CONFORMER_DIVERSEORDER>
1
50
26
49
14
15
48
31
18
36
35
17
37
47
13
16
44
24
2
46
28
6
38
39
7
29
12
32
30
5
40
27
8
10
22
20
9
19
25
21
11
23
45
43
42
41
34
33
3
4

>  <PUBCHEM_MMFF94_PARTIAL_CHARGES>
21
1 -0.57
10 0.27
11 0.41
12 -0.15
13 -0.15
14 0.09
15 0.16
16 0.54
2 -0.9
26 0.36
27 0.4
28 0.15
29 0.15
3 -0.87
30 0.15
31 0.37
32 0.37
4 -0.62
5 -0.8
6 0.37
9 0.27

>  <PUBCHEM_EFFECTIVE_ROTOR_COUNT>
4.2

>  <PUBCHEM_PHARMACOPHORE_FEATURES>
8
1 1 acceptor
1 2 cation
1 2 donor
1 3 donor
1 5 donor
3 3 4 11 cation
6 2 6 7 8 9 10 rings
6 4 11 12 13 14 15 rings

>  <PUBCHEM_HEAVY_ATOM_COUNT>
16

>  <PUBCHEM_ATOM_DEF_STEREO_COUNT>
0

>  <PUBCHEM_ATOM_UDEF_STEREO_COUNT>
0

>  <PUBCHEM_BOND_DEF_STEREO_COUNT>
0

>  <PUBCHEM_BOND_UDEF_STEREO_COUNT>
0

>  <PUBCHEM_ISOTOPIC_ATOM_COUNT>
0

>  <PUBCHEM_COMPONENT_COUNT>
1

>  <PUBCHEM_CACTVS_TAUTO_COUNT>
7

>  <PUBCHEM_CONFORMER_ID>
0292AFB700000001

>  <PUBCHEM_MMFF94_ENERGY>
38.138

>  <PUBCHEM_FEATURE_SELFOVERLAP>
40.596

>  <PUBCHEM_SHAPE_FINGERPRINT>
10680689 15 17967821556547427859
11128504 68 16773795935191816304
11471102 20 18343021099459654072
11543360 7 15123507047315153352
11615757 297 17989204854410436761
12236239 1 17060341820911719977
12670546 56 16515673438619668288
128620 24 18202565077121830679
13081056 2 18410014342718655572
13167823 11 15698004011410499678
13760787 5 18131637772558104544
14123238 8 17275106145472633632
14573314 32 17530966847953260742
14576447 43 17632283593046415087
17834072 33 16845572041141180928
18186145 218 18115600239910052234
19489759 90 17022617585252038041
200 152 17988921176410850233
20279233 1 18113341894771864851
20645477 70 18339642226849752702
231179 274 18113614586587719872
23402539 116 17676201398884809079
23402655 69 18201152157652003365
23557571 272 17821735996384650117
23559900 14 17676770864625586370
3268164 11 17458336451596896919
351380 180 17749387083036047381
4990 188 17489315165802297822
5104073 3 18334859363952804601
53428517 58 18341889697388540323

>  <PUBCHEM_SHAPE_MULTIPOLES>
303.48
10.17
1.34
0.99
2.3
0.02
0.05
-0.88
1.34
0.4
0.09
-0.97
-0.08
0.82

>  <PUBCHEM_SHAPE_SELFOVERLAP>
633.564

>  <PUBCHEM_SHAPE_VOLUME>
169.2

>  <PUBCHEM_COORDINATE_TYPE>
2
5
10

$$$$
