43252545
 OpenBabel01182520543D

 46 47  0  0  0  0  0  0  0  0999 V2000
    3.1267   -2.5081    0.6765 O   0  0  0  0  0  0  0  0  0  0  0  0
   -1.3688    0.0267    0.5743 N   0  0  0  0  0  0  0  0  0  0  0  0
    1.4351    0.3819    0.1609 N   0  0  0  0  0  0  0  0  0  0  0  0
    3.1900    1.9521    0.1374 N   0  0  0  0  0  0  0  0  0  0  0  0
   -8.6739    0.6733   -0.6351 N   0  0  0  0  0  0  0  0  0  0  0  0
    2.8670   -2.2369   -1.5857 N   0  0  0  0  0  0  0  0  0  0  0  0
   -0.8322    0.1887   -0.7823 C   0  0  0  0  0  0  0  0  0  0  0  0
   -0.3985   -0.6876    1.4132 C   0  0  0  0  0  0  0  0  0  0  0  0
    0.4738    0.9869   -0.7660 C   0  0  0  0  0  0  0  0  0  0  0  0
    0.9211    0.0822    1.5033 C   0  0  0  0  0  0  0  0  0  0  0  0
   -2.6430   -0.6902    0.5399 C   0  0  0  0  0  0  0  0  0  0  0  0
   -3.7796    0.2648    0.1794 C   0  0  0  0  0  0  0  0  0  0  0  0
   -5.1248   -0.4638    0.1465 C   0  0  0  0  0  0  0  0  0  0  0  0
    2.7994    0.6625    0.0269 C   0  0  0  0  0  0  0  0  0  0  0  0
   -6.2611    0.4812   -0.2502 C   0  0  0  0  0  0  0  0  0  0  0  0
    3.6660   -0.3929   -0.2080 C   0  0  0  0  0  0  0  0  0  0  0  0
   -7.6070   -0.2415   -0.2462 C   0  0  0  0  0  0  0  0  0  0  0  0
    5.0203   -0.1064   -0.3381 C   0  0  0  0  0  0  0  0  0  0  0  0
    3.2149   -1.7731   -0.3214 C   0  0  0  0  0  0  0  0  0  0  0  0
    4.5139    2.1919    0.0053 C   0  0  0  0  0  0  0  0  0  0  0  0
    5.4607    1.2082   -0.2308 C   0  0  0  0  0  0  0  0  0  0  0  0
   -1.5361    0.7261   -1.4263 H   0  0  0  0  0  0  0  0  0  0  0  0
   -0.6511   -0.7905   -1.2467 H   0  0  0  0  0  0  0  0  0  0  0  0
   -0.2114   -1.6948    1.0167 H   0  0  0  0  0  0  0  0  0  0  0  0
   -0.7907   -0.8039    2.4309 H   0  0  0  0  0  0  0  0  0  0  0  0
    0.8883    1.0049   -1.7815 H   0  0  0  0  0  0  0  0  0  0  0  0
    0.2807    2.0255   -0.4687 H   0  0  0  0  0  0  0  0  0  0  0  0
    0.7753    1.0210    2.0530 H   0  0  0  0  0  0  0  0  0  0  0  0
    1.6408   -0.5190    2.0718 H   0  0  0  0  0  0  0  0  0  0  0  0
   -2.6109   -1.5468   -0.1458 H   0  0  0  0  0  0  0  0  0  0  0  0
   -2.8703   -1.0970    1.5344 H   0  0  0  0  0  0  0  0  0  0  0  0
   -3.8248    1.0817    0.9110 H   0  0  0  0  0  0  0  0  0  0  0  0
   -3.6100    0.7223   -0.8016 H   0  0  0  0  0  0  0  0  0  0  0  0
   -5.3320   -0.8950    1.1335 H   0  0  0  0  0  0  0  0  0  0  0  0
   -5.0761   -1.2958   -0.5666 H   0  0  0  0  0  0  0  0  0  0  0  0
   -6.0627    0.8931   -1.2478 H   0  0  0  0  0  0  0  0  0  0  0  0
   -6.2921    1.3274    0.4479 H   0  0  0  0  0  0  0  0  0  0  0  0
   -7.8190   -0.6431    0.7508 H   0  0  0  0  0  0  0  0  0  0  0  0
   -7.5851   -1.0827   -0.9472 H   0  0  0  0  0  0  0  0  0  0  0  0
    5.7418   -0.8980   -0.5226 H   0  0  0  0  0  0  0  0  0  0  0  0
    4.8057    3.2329    0.0972 H   0  0  0  0  0  0  0  0  0  0  0  0
    6.5116    1.4549   -0.3287 H   0  0  0  0  0  0  0  0  0  0  0  0
   -8.7223    1.4461    0.0277 H   0  0  0  0  0  0  0  0  0  0  0  0
   -9.5700    0.1911   -0.5776 H   0  0  0  0  0  0  0  0  0  0  0  0
    2.9240   -1.6479   -2.4104 H   0  0  0  0  0  0  0  0  0  0  0  0
    2.5398   -3.1876   -1.7210 H   0  0  0  0  0  0  0  0  0  0  0  0
  1 19  2  0  0  0  0
  2  7  1  0  0  0  0
  2  8  1  0  0  0  0
  2 11  1  0  0  0  0
  3  9  1  0  0  0  0
  3 10  1  0  0  0  0
  3 14  1  0  0  0  0
  4 14  1  0  0  0  0
  4 20  2  0  0  0  0
  5 17  1  0  0  0  0
  5 43  1  0  0  0  0
  5 44  1  0  0  0  0
  6 19  1  0  0  0  0
  6 45  1  0  0  0  0
  6 46  1  0  0  0  0
  7  9  1  0  0  0  0
  7 22  1  0  0  0  0
  7 23  1  0  0  0  0
  8 10  1  0  0  0  0
  8 24  1  0  0  0  0
  8 25  1  0  0  0  0
  9 26  1  0  0  0  0
  9 27  1  0  0  0  0
 10 28  1  0  0  0  0
 10 29  1  0  0  0  0
 11 12  1  0  0  0  0
 11 30  1  0  0  0  0
 11 31  1  0  0  0  0
 12 13  1  0  0  0  0
 12 32  1  0  0  0  0
 12 33  1  0  0  0  0
 13 15  1  0  0  0  0
 13 34  1  0  0  0  0
 13 35  1  0  0  0  0
 14 16  2  0  0  0  0
 15 17  1  0  0  0  0
 15 36  1  0  0  0  0
 15 37  1  0  0  0  0
 16 18  1  0  0  0  0
 16 19  1  0  0  0  0
 17 38  1  0  0  0  0
 17 39  1  0  0  0  0
 18 21  2  0  0  0  0
 18 40  1  0  0  0  0
 20 21  1  0  0  0  0
 20 41  1  0  0  0  0
 21 42  1  0  0  0  0
M  END
>  <PUBCHEM_COMPOUND_CID>
43252545

>  <PUBCHEM_CONFORMER_RMSD>
0.8

>  <PUBCHEM_CONFORMER_DIVERSEORDER>
1
46
57
109
207
139
234
134
251
182
179
28
161
112
97
172
86
91
65
104
224
227
136
236
138
232
41
235
191
162
195
82
37
125
63
131
21
137
119
116
163
203
89
246
213
54
196
44
242
193
219
47
249
81
244
208
36
113
205
240
79
173
250
148
212
38
233
62
142
220
164
231
241
237
183
45
93
67
160
218
248
64
100
171
243
247
30
169
168
106
40
180
120
16
174
166
108
181
194
68
150
39
121
17
223
145
73
229
176
35
99
78
23
211
11
155
77
71
217
154
129
239
146
76
103
85
124
209
158
7
216
69
25
13
95
151
144
185
159
84
206
165
204
149
70
118
188
230
153
66
127
59
157
87
61
90
132
175
26
245
72
92
225
214
135
48
192
228
156
18
187
12
126
177
114
198
27
49
141
110
80
24
238
19
98
184
152
33
83
252
43
143
14
215
197
2
52
167
115
53
221
51
117
88
101
199
5
55
147
128
111
105
56
10
210
140
75
226
42
130
186
178
122
94
34
22
15
133
200
222
31
74
58
6
96
3
189
123
201
20
4
29
102
50
190
107
202
8
9
170
32
60

>  <PUBCHEM_MMFF94_PARTIAL_CHARGES>
25
1 -0.57
10 0.37
11 0.27
14 0.41
16 0.09
17 0.27
18 -0.15
19 0.54
2 -0.81
20 0.16
21 -0.15
3 -0.84
4 -0.62
40 0.15
41 0.15
42 0.15
43 0.36
44 0.36
45 0.37
46 0.37
5 -0.99
6 -0.8
7 0.27
8 0.27
9 0.37

>  <PUBCHEM_EFFECTIVE_ROTOR_COUNT>
8.2

>  <PUBCHEM_PHARMACOPHORE_FEATURES>
9
1 1 acceptor
1 2 cation
1 3 cation
1 4 acceptor
1 5 cation
1 5 donor
1 6 donor
6 2 3 7 8 9 10 rings
6 4 14 16 18 20 21 rings

>  <PUBCHEM_HEAVY_ATOM_COUNT>
21

>  <PUBCHEM_ATOM_DEF_STEREO_COUNT>
0

>  <PUBCHEM_ATOM_UDEF_STEREO_COUNT>
0

>  <PUBCHEM_BOND_DEF_STEREO_COUNT>
0

>  <PUBCHEM_BOND_UDEF_STEREO_COUNT>
0

>  <PUBCHEM_ISOTOPIC_ATOM_COUNT>
0

>  <PUBCHEM_COMPONENT_COUNT>
1

>  <PUBCHEM_CACTVS_TAUTO_COUNT>
2

>  <PUBCHEM_CONFORMER_ID>
0293FB4100000001

>  <PUBCHEM_MMFF94_ENERGY>
57.3122

>  <PUBCHEM_FEATURE_SELFOVERLAP>
45.673

>  <PUBCHEM_SHAPE_FINGERPRINT>
10411042 1 18050004394985763818
11135609 127 18338794649165952621
11796584 16 17775005725944811599
12107183 9 17695359070322339041
12166972 35 11887672892603711219
12236239 1 17346887736517364960
12730499 353 18334019410321101490
12916748 109 17313101939035035469
13533116 47 17989208110112100675
13760787 19 17917992827521426462
13836976 161 18201444696749188494
14933364 13 18408323294368015957
15183329 4 18060139821918485905
15375358 24 18041285451953847498
17834072 33 18343301491682612943
17980427 23 16372418210829583910
18222031 100 15123792894404930843
19427546 62 18263927807745845060
20157964 124 18412547617450905805
20645477 70 18342743988032832590
21150785 3 17275103959651051105
21285901 2 18114745940860429452
220451 1 17561365098014416407
221357 26 18410854348180674737
23081809 10 17560805408041178857
23536379 177 18343585136108425081
23557571 272 16805318864872079638
23559900 14 18341047535816788897
29717793 49 17775292646427973461
300161 21 18271523182267306451
3004659 81 18202284675660499819
335352 9 18411143528924443374
33824 294 18409171017664232762
34797466 226 18410857655510564917
3633792 109 18272939280445637859
4073 2 18114466768387499211
42630746 31 18410012130778921146
4340502 62 18201438112247968150
465052 167 16558752325596785599
495365 180 18270676584511173016
59755656 215 18261114066805520716
6025842 7 18343304756042770766
8272917 22 18272377460121395566
8988823 20 18411136922283319870

>  <PUBCHEM_SHAPE_MULTIPOLES>
401.4
17.74
1.83
1.06
42.03
0.52
0.11
-4.01
-3.89
-3.41
-0.21
-0.22
0.31
0.64

>  <PUBCHEM_SHAPE_SELFOVERLAP>
816.08

>  <PUBCHEM_SHAPE_VOLUME>
232.6

>  <PUBCHEM_COORDINATE_TYPE>
2
5
10

$$$$
