43252507
 OpenBabel01182520543D

 40 41  0  0  1  0  0  0  0  0999 V2000
    1.6920   -1.9029    1.8995 O   0  0  0  0  0  0  0  0  0  0  0  0
   -2.8182    0.5462    0.0881 N   0  0  0  0  0  0  0  0  0  0  0  0
    0.4409    0.6583    0.0632 N   0  0  0  0  0  0  0  0  0  0  0  0
    2.4083    1.5984   -0.8267 N   0  0  0  0  0  0  0  0  0  0  0  0
   -5.9895   -1.0484   -1.0807 N   0  0  0  0  0  0  0  0  0  0  0  0
    1.1518   -2.7144   -0.1761 N   0  0  0  0  0  0  0  0  0  0  0  0
   -2.5031    1.2068    1.3593 C   0  0  0  0  0  0  0  0  0  0  0  0
   -1.7877   -0.4101   -0.3328 C   0  0  0  0  0  0  0  0  0  0  0  0
   -1.2095    2.0225    1.3503 C   0  0  0  0  0  0  0  0  0  0  0  0
   -0.5618    0.2844   -0.9343 C   0  0  0  0  0  0  0  0  0  0  0  0
    0.0573    1.1692    1.3789 C   0  0  0  0  0  0  0  0  0  0  0  0
   -4.1166   -0.1276    0.1980 C   0  0  0  0  0  0  0  0  0  0  0  0
    1.7995    0.5379   -0.2502 C   0  0  0  0  0  0  0  0  0  0  0  0
   -4.7066   -0.3624   -1.1893 C   0  0  0  0  0  0  0  0  0  0  0  0
    2.4371   -0.6563    0.0452 C   0  0  0  0  0  0  0  0  0  0  0  0
    3.7862   -0.7695   -0.2713 C   0  0  0  0  0  0  0  0  0  0  0  0
    1.7528   -1.7833    0.6642 C   0  0  0  0  0  0  0  0  0  0  0  0
    3.7199    1.4514   -1.1200 C   0  0  0  0  0  0  0  0  0  0  0  0
    4.4473    0.2999   -0.8653 C   0  0  0  0  0  0  0  0  0  0  0  0
   -2.4762    0.4797    2.1821 H   0  0  0  0  0  0  0  0  0  0  0  0
   -3.3109    1.9131    1.5921 H   0  0  0  0  0  0  0  0  0  0  0  0
   -2.1661   -1.0579   -1.1292 H   0  0  0  0  0  0  0  0  0  0  0  0
   -1.5066   -1.0844    0.4870 H   0  0  0  0  0  0  0  0  0  0  0  0
   -1.2124    2.6397    2.2584 H   0  0  0  0  0  0  0  0  0  0  0  0
   -1.1968    2.7213    0.5048 H   0  0  0  0  0  0  0  0  0  0  0  0
   -0.1111   -0.4075   -1.6585 H   0  0  0  0  0  0  0  0  0  0  0  0
   -0.8533    1.1694   -1.5142 H   0  0  0  0  0  0  0  0  0  0  0  0
    0.8681    1.8005    1.7665 H   0  0  0  0  0  0  0  0  0  0  0  0
   -0.0518    0.3373    2.0845 H   0  0  0  0  0  0  0  0  0  0  0  0
   -4.0300   -1.0679    0.7594 H   0  0  0  0  0  0  0  0  0  0  0  0
   -4.8246    0.5044    0.7517 H   0  0  0  0  0  0  0  0  0  0  0  0
   -4.8545    0.5944   -1.7039 H   0  0  0  0  0  0  0  0  0  0  0  0
   -4.0650   -0.9776   -1.8241 H   0  0  0  0  0  0  0  0  0  0  0  0
   -6.4022   -1.1425   -2.0079 H   0  0  0  0  0  0  0  0  0  0  0  0
   -6.6380   -0.4809   -0.5364 H   0  0  0  0  0  0  0  0  0  0  0  0
    4.3328   -1.6850   -0.0606 H   0  0  0  0  0  0  0  0  0  0  0  0
    4.1890    2.3139   -1.5820 H   0  0  0  0  0  0  0  0  0  0  0  0
    5.4986    0.2342   -1.1209 H   0  0  0  0  0  0  0  0  0  0  0  0
    1.1848   -2.6289   -1.1870 H   0  0  0  0  0  0  0  0  0  0  0  0
    0.6549   -3.5141    0.2018 H   0  0  0  0  0  0  0  0  0  0  0  0
  1 17  2  0  0  0  0
  2  7  1  0  0  0  0
  2  8  1  0  0  0  0
  2 12  1  0  0  0  0
  3 10  1  0  0  0  0
  3 11  1  0  0  0  0
  3 13  1  0  0  0  0
  4 13  1  0  0  0  0
  4 18  2  0  0  0  0
  5 14  1  0  0  0  0
  5 34  1  0  0  0  0
  5 35  1  0  0  0  0
  6 17  1  0  0  0  0
  6 39  1  0  0  0  0
  6 40  1  0  0  0  0
  7  9  1  0  0  0  0
  7 20  1  0  0  0  0
  7 21  1  0  0  0  0
  8 10  1  0  0  0  0
  8 22  1  0  0  0  0
  8 23  1  0  0  0  0
  9 11  1  0  0  0  0
  9 24  1  0  0  0  0
  9 25  1  0  0  0  0
 10 26  1  0  0  0  0
 10 27  1  0  0  0  0
 11 28  1  0  0  0  0
 11 29  1  0  0  0  0
 12 14  1  0  0  0  0
 12 30  1  0  0  0  0
 12 31  1  0  0  0  0
 13 15  2  0  0  0  0
 14 32  1  0  0  0  0
 14 33  1  0  0  0  0
 15 16  1  0  0  0  0
 15 17  1  0  0  0  0
 16 19  2  0  0  0  0
 16 36  1  0  0  0  0
 18 19  1  0  0  0  0
 18 37  1  0  0  0  0
 19 38  1  0  0  0  0
M  END
>  <PUBCHEM_COMPOUND_CID>
43252507

>  <PUBCHEM_CONFORMER_RMSD>
0.8

>  <PUBCHEM_CONFORMER_DIVERSEORDER>
2
19
45
34
42
8
33
48
63
58
52
55
49
61
17
31
62
66
27
38
65
13
41
26
36
59
47
35
12
4
3
21
40
53
64
50
7
39
20
51
68
60
22
54
29
32
18
16
43
10
25
28
67
24
5
30
56
9
23
6
57
15
37
46
11
44
1
14

>  <PUBCHEM_MMFF94_PARTIAL_CHARGES>
25
1 -0.57
10 0.37
11 0.37
12 0.27
13 0.41
14 0.27
15 0.09
16 -0.15
17 0.54
18 0.16
19 -0.15
2 -0.81
3 -0.84
34 0.36
35 0.36
36 0.15
37 0.15
38 0.15
39 0.37
4 -0.62
40 0.37
5 -0.99
6 -0.8
7 0.27
8 0.27

>  <PUBCHEM_EFFECTIVE_ROTOR_COUNT>
5.4

>  <PUBCHEM_PHARMACOPHORE_FEATURES>
9
1 1 acceptor
1 2 cation
1 3 cation
1 4 acceptor
1 5 cation
1 5 donor
1 6 donor
6 4 13 15 16 18 19 rings
7 2 3 7 8 9 10 11 rings

>  <PUBCHEM_HEAVY_ATOM_COUNT>
19

>  <PUBCHEM_ATOM_DEF_STEREO_COUNT>
0

>  <PUBCHEM_ATOM_UDEF_STEREO_COUNT>
0

>  <PUBCHEM_BOND_DEF_STEREO_COUNT>
0

>  <PUBCHEM_BOND_UDEF_STEREO_COUNT>
0

>  <PUBCHEM_ISOTOPIC_ATOM_COUNT>
0

>  <PUBCHEM_COMPONENT_COUNT>
1

>  <PUBCHEM_CACTVS_TAUTO_COUNT>
2

>  <PUBCHEM_CONFORMER_ID>
0293FB1B00000002

>  <PUBCHEM_MMFF94_ENERGY>
67.3453

>  <PUBCHEM_FEATURE_SELFOVERLAP>
45.671

>  <PUBCHEM_SHAPE_FINGERPRINT>
10366900 7 17095529452664490940
11069576 57 18267568144617258623
11471102 20 18113901563412327172
11543360 7 17967527995907253557
11578080 2 18125411182397566440
12236239 1 18272092677925070804
12553582 1 17845922005627753151
12592029 89 17748821917317124082
13009979 54 17841431432272720834
13083527 12 17678720268739971138
13538477 17 17915461588703953320
13760787 19 18342464690662641161
13836976 161 18261111898068888054
14251717 144 18260834782615552318
14576447 43 18342457036545298214
15183329 4 18272358743440195741
15375358 24 16515406270036413853
15852999 172 15285650862921363056
16752209 62 17846211108265947093
16945 1 17822020761722975640
18222031 100 16988268864124031565
19422 9 18200884959014462366
200 152 18411139125860200189
20279233 1 16588032294332212313
20645477 70 18187078425611425911
21054139 6 18412260649063707470
23402539 116 17703793604856293925
23596394 208 17821999887796983831
23598291 2 18266753380535469796
2871803 45 18333732411726115741
3060560 45 18113338639413261204
351380 3 17917990612093787871
4340502 62 18263918998272133337
465052 167 17560522927778532999
474 4 18267307723928876436
57096353 35 18340780289945390868
603831 33 18341614797980574569
621550 5 14835858265216675224
633830 44 18047788994428659436
7495541 125 15626219122231739880
77492 1 18270692965226334696
8272917 22 18263088716911939175
8863177 126 17912079762406590519
9981440 41 17480574285023355168

>  <PUBCHEM_SHAPE_MULTIPOLES>
360.24
9.24
2.05
1.42
8.91
0.5
0.35
1.78
-4.36
-0.67
0.64
0.12
-0.08
-1.83

>  <PUBCHEM_SHAPE_SELFOVERLAP>
740.779

>  <PUBCHEM_SHAPE_VOLUME>
203.7

>  <PUBCHEM_COORDINATE_TYPE>
2
5
10

$$$$
