43251496
 OpenBabel01182520543D

 43 44  0  0  1  0  0  0  0  0999 V2000
   -1.9072   -2.2603    1.5224 O   0  0  0  0  0  0  0  0  0  0  0  0
    2.3912    0.4024   -0.4644 N   0  0  0  0  0  0  0  0  0  0  0  0
   -0.8434    0.6129    0.0208 N   0  0  0  0  0  0  0  0  0  0  0  0
   -2.9013    1.6994   -0.3725 N   0  0  0  0  0  0  0  0  0  0  0  0
    7.2891   -0.1291   -0.2178 N   0  0  0  0  0  0  0  0  0  0  0  0
   -1.6807   -2.6616   -0.7239 N   0  0  0  0  0  0  0  0  0  0  0  0
    2.1338    1.4531    0.5235 C   0  0  0  0  0  0  0  0  0  0  0  0
    1.2257   -0.3830   -0.8801 C   0  0  0  0  0  0  0  0  0  0  0  0
    1.0525    1.1609    1.5669 C   0  0  0  0  0  0  0  0  0  0  0  0
   -0.0312    0.4362   -1.1871 C   0  0  0  0  0  0  0  0  0  0  0  0
   -0.3581    1.4994    1.0843 C   0  0  0  0  0  0  0  0  0  0  0  0
    3.4684   -0.4890   -0.0296 C   0  0  0  0  0  0  0  0  0  0  0  0
    4.8292    0.1361   -0.3417 C   0  0  0  0  0  0  0  0  0  0  0  0
   -2.2419    0.5503   -0.1031 C   0  0  0  0  0  0  0  0  0  0  0  0
    6.0038   -0.7528    0.0728 C   0  0  0  0  0  0  0  0  0  0  0  0
   -2.8601   -0.6790    0.0598 C   0  0  0  0  0  0  0  0  0  0  0  0
   -4.2443   -0.7326   -0.0616 C   0  0  0  0  0  0  0  0  0  0  0  0
   -2.1221   -1.8999    0.3529 C   0  0  0  0  0  0  0  0  0  0  0  0
   -4.2457    1.6082   -0.4833 C   0  0  0  0  0  0  0  0  0  0  0  0
   -4.9577    0.4284   -0.3382 C   0  0  0  0  0  0  0  0  0  0  0  0
    1.8681    2.3683   -0.0211 H   0  0  0  0  0  0  0  0  0  0  0  0
    3.0543    1.7176    1.0577 H   0  0  0  0  0  0  0  0  0  0  0  0
    0.9894   -1.1607   -0.1412 H   0  0  0  0  0  0  0  0  0  0  0  0
    1.5030   -0.9053   -1.8052 H   0  0  0  0  0  0  0  0  0  0  0  0
    1.2570    1.7894    2.4435 H   0  0  0  0  0  0  0  0  0  0  0  0
    1.1091    0.1238    1.9186 H   0  0  0  0  0  0  0  0  0  0  0  0
    0.2077    1.4061   -1.6406 H   0  0  0  0  0  0  0  0  0  0  0  0
   -0.6087   -0.1154   -1.9406 H   0  0  0  0  0  0  0  0  0  0  0  0
   -1.0241    1.4222    1.9544 H   0  0  0  0  0  0  0  0  0  0  0  0
   -0.3998    2.5423    0.7450 H   0  0  0  0  0  0  0  0  0  0  0  0
    3.3813   -0.7429    1.0344 H   0  0  0  0  0  0  0  0  0  0  0  0
    3.4243   -1.4400   -0.5777 H   0  0  0  0  0  0  0  0  0  0  0  0
    4.8950    0.3373   -1.4196 H   0  0  0  0  0  0  0  0  0  0  0  0
    4.9342    1.1044    0.1623 H   0  0  0  0  0  0  0  0  0  0  0  0
    5.9449   -1.7137   -0.4506 H   0  0  0  0  0  0  0  0  0  0  0  0
    5.9480   -0.9601    1.1470 H   0  0  0  0  0  0  0  0  0  0  0  0
   -4.7778   -1.6718    0.0579 H   0  0  0  0  0  0  0  0  0  0  0  0
    7.3660    0.0469   -1.2187 H   0  0  0  0  0  0  0  0  0  0  0  0
    8.0403   -0.7763    0.0177 H   0  0  0  0  0  0  0  0  0  0  0  0
   -4.7552    2.5413   -0.6995 H   0  0  0  0  0  0  0  0  0  0  0  0
   -6.0370    0.4106   -0.4370 H   0  0  0  0  0  0  0  0  0  0  0  0
   -1.8533   -2.3869   -1.6857 H   0  0  0  0  0  0  0  0  0  0  0  0
   -1.1657   -3.5233   -0.5771 H   0  0  0  0  0  0  0  0  0  0  0  0
  1 18  2  0  0  0  0
  2  7  1  0  0  0  0
  2  8  1  0  0  0  0
  2 12  1  0  0  0  0
  3 10  1  0  0  0  0
  3 11  1  0  0  0  0
  3 14  1  0  0  0  0
  4 14  1  0  0  0  0
  4 19  2  0  0  0  0
  5 15  1  0  0  0  0
  5 38  1  0  0  0  0
  5 39  1  0  0  0  0
  6 18  1  0  0  0  0
  6 42  1  0  0  0  0
  6 43  1  0  0  0  0
  7  9  1  0  0  0  0
  7 21  1  0  0  0  0
  7 22  1  0  0  0  0
  8 10  1  0  0  0  0
  8 23  1  0  0  0  0
  8 24  1  0  0  0  0
  9 11  1  0  0  0  0
  9 25  1  0  0  0  0
  9 26  1  0  0  0  0
 10 27  1  0  0  0  0
 10 28  1  0  0  0  0
 11 29  1  0  0  0  0
 11 30  1  0  0  0  0
 12 13  1  0  0  0  0
 12 31  1  0  0  0  0
 12 32  1  0  0  0  0
 13 15  1  0  0  0  0
 13 33  1  0  0  0  0
 13 34  1  0  0  0  0
 14 16  2  0  0  0  0
 15 35  1  0  0  0  0
 15 36  1  0  0  0  0
 16 17  1  0  0  0  0
 16 18  1  0  0  0  0
 17 20  2  0  0  0  0
 17 37  1  0  0  0  0
 19 20  1  0  0  0  0
 19 40  1  0  0  0  0
 20 41  1  0  0  0  0
M  END
>  <PUBCHEM_COMPOUND_CID>
43251496

>  <PUBCHEM_CONFORMER_RMSD>
0.8

>  <PUBCHEM_CONFORMER_DIVERSEORDER>
5
72
123
52
84
146
70
119
80
145
99
88
128
124
48
113
141
117
112
4
8
89
38
149
93
17
107
142
140
78
69
75
7
134
126
27
148
74
50
33
110
6
153
133
59
136
95
12
139
81
152
130
125
151
1
87
63
90
46
131
121
100
103
129
102
44
53
68
54
24
13
118
73
57
106
19
144
10
135
150
61
76
108
111
92
29
147
25
96
58
98
86
115
26
114
122
2
85
109
56
39
65
60
32
28
132
101
67
14
21
127
83
22
116
82
138
64
15
77
30
37
23
20
91
43
143
45
49
71
35
62
120
11
105
9
55
79
31
42
16
47
18
94
3
34
40
66
51
36
97
104
137
41

>  <PUBCHEM_MMFF94_PARTIAL_CHARGES>
25
1 -0.57
10 0.37
11 0.37
12 0.27
14 0.41
15 0.27
16 0.09
17 -0.15
18 0.54
19 0.16
2 -0.81
20 -0.15
3 -0.84
37 0.15
38 0.36
39 0.36
4 -0.62
40 0.15
41 0.15
42 0.37
43 0.37
5 -0.99
6 -0.8
7 0.27
8 0.27

>  <PUBCHEM_EFFECTIVE_ROTOR_COUNT>
6.4

>  <PUBCHEM_PHARMACOPHORE_FEATURES>
9
1 1 acceptor
1 2 cation
1 3 cation
1 4 acceptor
1 5 cation
1 5 donor
1 6 donor
6 4 14 16 17 19 20 rings
7 2 3 7 8 9 10 11 rings

>  <PUBCHEM_HEAVY_ATOM_COUNT>
20

>  <PUBCHEM_ATOM_DEF_STEREO_COUNT>
0

>  <PUBCHEM_ATOM_UDEF_STEREO_COUNT>
0

>  <PUBCHEM_BOND_DEF_STEREO_COUNT>
0

>  <PUBCHEM_BOND_UDEF_STEREO_COUNT>
0

>  <PUBCHEM_ISOTOPIC_ATOM_COUNT>
0

>  <PUBCHEM_COMPONENT_COUNT>
1

>  <PUBCHEM_CACTVS_TAUTO_COUNT>
2

>  <PUBCHEM_CONFORMER_ID>
0293F72800000005

>  <PUBCHEM_MMFF94_ENERGY>
67.1788

>  <PUBCHEM_FEATURE_SELFOVERLAP>
45.671

>  <PUBCHEM_SHAPE_FINGERPRINT>
10 15 17917415546533198136
10366900 7 17418089889239950618
107951 10 17894632539370264715
10803635 8 18334572413156469820
10906281 52 17845391997461958504
11045977 3 18201715185194300640
11315181 36 18202848755796760736
12011746 2 18201997711699416471
12236239 1 17022621966234932493
124424 183 18202282515365575573
12500047 106 18408599258199832149
12633257 1 17774176723904518771
12788726 201 18058165021029718416
13288520 33 18409168809412635252
14115302 16 18408892849116014436
14251731 8 18411135822945875588
14386348 63 17988927773359453558
15042514 8 18190466150661530235
15375358 24 18059859449994087302
17804303 29 18412263973420797597
192875 21 14620512363149407627
19489759 90 18412825759306381852
200 152 16702300144303477853
20645476 183 17385720314326298315
20681677 155 18113335301849307576
21267235 1 18335144223801580491
21279426 13 18055076462649127734
21682296 61 16772689698151612390
23175994 123 17775289365115469184
23402539 116 18411131420831439317
23419403 2 14977680014356752735
23536379 177 18040153985896190948
23559900 14 18411694422234862120
26918003 58 18343582941279903460
3004659 81 18261111817197874898
4214541 1 18408041814289268620
4921388 177 17168432669675466075
5265222 85 18336557122287493854
559249 180 18334290929695507938
59755656 215 18200881669718945462
633830 44 16370728188095211604
7226269 152 18272089349072462409
8809292 202 18340769329431197601
9709674 26 18196646522188866705

>  <PUBCHEM_SHAPE_MULTIPOLES>
380.82
12.12
2.01
1.08
19.29
0.87
-0.26
0.95
1.67
-1.88
-0.38
-0.1
-0.02
0.71

>  <PUBCHEM_SHAPE_SELFOVERLAP>
778.292

>  <PUBCHEM_SHAPE_VOLUME>
218

>  <PUBCHEM_COORDINATE_TYPE>
2
5
10

$$$$
