43252516
 OpenBabel01182520543D

 43 44  0  0  0  0  0  0  0  0999 V2000
    2.6206   -2.5177    0.7782 O   0  0  0  0  0  0  0  0  0  0  0  0
   -1.8070    0.1296    0.5137 N   0  0  0  0  0  0  0  0  0  0  0  0
    1.0124    0.3993    0.1438 N   0  0  0  0  0  0  0  0  0  0  0  0
    2.8082    1.9223    0.1029 N   0  0  0  0  0  0  0  0  0  0  0  0
   -7.9920   -0.0090   -0.4668 N   0  0  0  0  0  0  0  0  0  0  0  0
    2.4018   -2.3068   -1.4948 N   0  0  0  0  0  0  0  0  0  0  0  0
   -1.2414    0.2366   -0.8366 C   0  0  0  0  0  0  0  0  0  0  0  0
   -0.8716   -0.5840    1.3919 C   0  0  0  0  0  0  0  0  0  0  0  0
    0.0848    1.0008   -0.8189 C   0  0  0  0  0  0  0  0  0  0  0  0
    0.4661    0.1537    1.4844 C   0  0  0  0  0  0  0  0  0  0  0  0
   -3.0990   -0.5547    0.4762 C   0  0  0  0  0  0  0  0  0  0  0  0
   -4.2354    0.3710    0.0372 C   0  0  0  0  0  0  0  0  0  0  0  0
    2.3860    0.6402    0.0277 C   0  0  0  0  0  0  0  0  0  0  0  0
   -5.6022   -0.3196   -0.0141 C   0  0  0  0  0  0  0  0  0  0  0  0
    3.2282   -0.4441   -0.1590 C   0  0  0  0  0  0  0  0  0  0  0  0
   -6.6978    0.6616   -0.4312 C   0  0  0  0  0  0  0  0  0  0  0  0
    4.5915   -0.1968   -0.2762 C   0  0  0  0  0  0  0  0  0  0  0  0
    2.7429   -1.8150   -0.2392 C   0  0  0  0  0  0  0  0  0  0  0  0
    4.1398    2.1238   -0.0152 C   0  0  0  0  0  0  0  0  0  0  0  0
    5.0641    1.1090   -0.2040 C   0  0  0  0  0  0  0  0  0  0  0  0
   -1.9199    0.7736   -1.5077 H   0  0  0  0  0  0  0  0  0  0  0  0
   -1.0786   -0.7602   -1.2690 H   0  0  0  0  0  0  0  0  0  0  0  0
   -0.7039   -1.6072    1.0292 H   0  0  0  0  0  0  0  0  0  0  0  0
   -1.2853   -0.6594    2.4049 H   0  0  0  0  0  0  0  0  0  0  0  0
    0.5183    0.9773   -1.8264 H   0  0  0  0  0  0  0  0  0  0  0  0
   -0.0861    2.0524   -0.5563 H   0  0  0  0  0  0  0  0  0  0  0  0
    0.3352    1.1121    2.0031 H   0  0  0  0  0  0  0  0  0  0  0  0
    1.1590   -0.4487    2.0841 H   0  0  0  0  0  0  0  0  0  0  0  0
   -3.3579   -0.9077    1.4836 H   0  0  0  0  0  0  0  0  0  0  0  0
   -3.0621   -1.4489   -0.1596 H   0  0  0  0  0  0  0  0  0  0  0  0
   -4.0274    0.7845   -0.9562 H   0  0  0  0  0  0  0  0  0  0  0  0
   -4.2897    1.2235    0.7269 H   0  0  0  0  0  0  0  0  0  0  0  0
   -5.5591   -1.1573   -0.7213 H   0  0  0  0  0  0  0  0  0  0  0  0
   -5.8349   -0.7401    0.9723 H   0  0  0  0  0  0  0  0  0  0  0  0
   -6.4777    1.0776   -1.4205 H   0  0  0  0  0  0  0  0  0  0  0  0
   -6.7475    1.4949    0.2779 H   0  0  0  0  0  0  0  0  0  0  0  0
    5.2948   -1.0121   -0.4241 H   0  0  0  0  0  0  0  0  0  0  0  0
    4.4571    3.1594    0.0479 H   0  0  0  0  0  0  0  0  0  0  0  0
   -7.9663   -0.7695   -1.1447 H   0  0  0  0  0  0  0  0  0  0  0  0
   -8.7018    0.6437   -0.7964 H   0  0  0  0  0  0  0  0  0  0  0  0
    6.1225    1.3255   -0.2927 H   0  0  0  0  0  0  0  0  0  0  0  0
    2.4865   -1.7441   -2.3353 H   0  0  0  0  0  0  0  0  0  0  0  0
    2.0518   -3.2523   -1.6075 H   0  0  0  0  0  0  0  0  0  0  0  0
  1 18  2  0  0  0  0
  2  7  1  0  0  0  0
  2  8  1  0  0  0  0
  2 11  1  0  0  0  0
  3  9  1  0  0  0  0
  3 10  1  0  0  0  0
  3 13  1  0  0  0  0
  4 13  1  0  0  0  0
  4 19  2  0  0  0  0
  5 16  1  0  0  0  0
  5 39  1  0  0  0  0
  5 40  1  0  0  0  0
  6 18  1  0  0  0  0
  6 42  1  0  0  0  0
  6 43  1  0  0  0  0
  7  9  1  0  0  0  0
  7 21  1  0  0  0  0
  7 22  1  0  0  0  0
  8 10  1  0  0  0  0
  8 23  1  0  0  0  0
  8 24  1  0  0  0  0
  9 25  1  0  0  0  0
  9 26  1  0  0  0  0
 10 27  1  0  0  0  0
 10 28  1  0  0  0  0
 11 12  1  0  0  0  0
 11 29  1  0  0  0  0
 11 30  1  0  0  0  0
 12 14  1  0  0  0  0
 12 31  1  0  0  0  0
 12 32  1  0  0  0  0
 13 15  2  0  0  0  0
 14 16  1  0  0  0  0
 14 33  1  0  0  0  0
 14 34  1  0  0  0  0
 15 17  1  0  0  0  0
 15 18  1  0  0  0  0
 16 35  1  0  0  0  0
 16 36  1  0  0  0  0
 17 20  2  0  0  0  0
 17 37  1  0  0  0  0
 19 20  1  0  0  0  0
 19 38  1  0  0  0  0
 20 41  1  0  0  0  0
M  END
>  <PUBCHEM_COMPOUND_CID>
43252516

>  <PUBCHEM_CONFORMER_RMSD>
0.8

>  <PUBCHEM_CONFORMER_DIVERSEORDER>
1
115
45
87
113
50
111
80
46
74
8
78
68
69
20
109
118
101
106
55
63
125
54
26
110
24
52
41
100
108
34
76
117
6
90
112
121
98
44
30
19
79
27
59
64
67
58
40
39
72
94
23
120
89
71
66
126
43
32
10
103
5
102
95
4
62
122
28
96
17
51
16
29
65
61
60
105
82
81
7
53
37
56
124
18
22
86
75
14
15
116
9
49
119
77
92
47
13
35
83
2
88
73
70
84
12
31
107
38
3
25
99
85
97
33
21
48
91
114
11
93
42
104
36
123
57

>  <PUBCHEM_MMFF94_PARTIAL_CHARGES>
25
1 -0.57
10 0.37
11 0.27
13 0.41
15 0.09
16 0.27
17 -0.15
18 0.54
19 0.16
2 -0.81
20 -0.15
3 -0.84
37 0.15
38 0.15
39 0.36
4 -0.62
40 0.36
41 0.15
42 0.37
43 0.37
5 -0.99
6 -0.8
7 0.27
8 0.27
9 0.37

>  <PUBCHEM_EFFECTIVE_ROTOR_COUNT>
7.2

>  <PUBCHEM_PHARMACOPHORE_FEATURES>
9
1 1 acceptor
1 2 cation
1 3 cation
1 4 acceptor
1 5 cation
1 5 donor
1 6 donor
6 2 3 7 8 9 10 rings
6 4 13 15 17 19 20 rings

>  <PUBCHEM_HEAVY_ATOM_COUNT>
20

>  <PUBCHEM_ATOM_DEF_STEREO_COUNT>
0

>  <PUBCHEM_ATOM_UDEF_STEREO_COUNT>
0

>  <PUBCHEM_BOND_DEF_STEREO_COUNT>
0

>  <PUBCHEM_BOND_UDEF_STEREO_COUNT>
0

>  <PUBCHEM_ISOTOPIC_ATOM_COUNT>
0

>  <PUBCHEM_COMPONENT_COUNT>
1

>  <PUBCHEM_CACTVS_TAUTO_COUNT>
2

>  <PUBCHEM_CONFORMER_ID>
0293FB2400000001

>  <PUBCHEM_MMFF94_ENERGY>
57.5578

>  <PUBCHEM_FEATURE_SELFOVERLAP>
45.673

>  <PUBCHEM_SHAPE_FINGERPRINT>
10411042 1 18050004390622198762
10595046 47 18343865524506090473
11471102 20 18411142450481359488
11796584 16 17846781836590089615
12107183 9 17622736319013263673
12166972 35 12175620698667475395
12236239 1 17418380181246339097
12670546 56 18131074809593545033
12730499 353 18261117386767930450
12788726 201 17203055101560662611
12916748 109 17313103034415278197
13533116 47 17988644060752494663
13760787 19 17917147298974551559
13836976 161 18272655662369950078
14573314 32 18187645769859567173
15183329 4 18131633353722728225
15375358 24 18040721393629818970
17834072 33 18342737438175765229
17844677 252 18335704893438915853
17980427 23 16299797658074246246
18222031 100 15195566810306174281
19427546 62 18263364857644841156
200 152 18202848751143123272
20157964 124 18411702093178022589
20645477 70 18341897355178300126
21285901 2 18113900412081562893
220451 1 17632858638403045815
221357 26 18409444774400479397
22224240 67 18338792420831487872
22289505 5 18335416850745176588
23402539 116 17676765482725251954
23536379 177 18343021086727862921
23557571 272 16732978687486827382
23559900 14 18340764957281415961
29717793 49 17703798002369912077
300161 21 18343579672677902895
3004659 81 18201156568282878819
3060560 45 18341902922199454556
335352 9 18410579483664586886
33824 294 18408605864197409778
3545911 37 18333732438086879961
4072396 5 18335410284557332744
4073 2 18114467859393536443
42630746 31 18409729551752944322
4340502 62 18272088331075314686
465052 167 16702303464423811807
495365 180 18341888649611978784
59755656 215 18333170557010531868
6025842 7 18342176656933311526
7164475 11 17916033351766904856
8272917 22 18272094876753017710

>  <PUBCHEM_SHAPE_MULTIPOLES>
380.82
14.68
1.86
1.06
30.96
0.66
0.12
-2.89
-2.87
-3.16
-0.21
-0.06
0.29
0.48

>  <PUBCHEM_SHAPE_SELFOVERLAP>
777.633

>  <PUBCHEM_SHAPE_VOLUME>
219.7

>  <PUBCHEM_COORDINATE_TYPE>
2
5
10

$$$$
