43252523
 OpenBabel01182520543D

 46 47  0  0  1  0  0  0  0  0999 V2000
    2.8820   -2.3878   -0.6632 O   0  0  0  0  0  0  0  0  0  0  0  0
   -2.1709   -0.8218    0.6050 N   0  0  0  0  0  0  0  0  0  0  0  0
    0.9600    0.0906    0.6194 N   0  0  0  0  0  0  0  0  0  0  0  0
    2.5498    1.7997    0.9313 N   0  0  0  0  0  0  0  0  0  0  0  0
   -6.1766    2.4897   -0.5278 N   0  0  0  0  0  0  0  0  0  0  0  0
    1.9788   -1.2160   -2.4153 N   0  0  0  0  0  0  0  0  0  0  0  0
   -1.6481   -1.4626    1.8164 C   0  0  0  0  0  0  0  0  0  0  0  0
   -1.1634   -0.6872   -0.4536 C   0  0  0  0  0  0  0  0  0  0  0  0
   -0.4930   -0.7158    2.4849 C   0  0  0  0  0  0  0  0  0  0  0  0
   -0.1966    0.4719   -0.1912 C   0  0  0  0  0  0  0  0  0  0  0  0
    0.8349   -0.8410    1.7400 C   0  0  0  0  0  0  0  0  0  0  0  0
   -3.3236   -1.5824    0.1102 C   0  0  0  0  0  0  0  0  0  0  0  0
   -4.2065   -0.7567   -0.8277 C   0  0  0  0  0  0  0  0  0  0  0  0
    2.2143    0.6381    0.3268 C   0  0  0  0  0  0  0  0  0  0  0  0
   -4.7894    0.4994   -0.1719 C   0  0  0  0  0  0  0  0  0  0  0  0
   -5.6372    1.2943   -1.1649 C   0  0  0  0  0  0  0  0  0  0  0  0
    3.0343   -0.0396   -0.5610 C   0  0  0  0  0  0  0  0  0  0  0  0
    4.2791    0.5102   -0.8464 C   0  0  0  0  0  0  0  0  0  0  0  0
    2.6446   -1.2909   -1.1964 C   0  0  0  0  0  0  0  0  0  0  0  0
    3.7673    2.3040    0.6294 C   0  0  0  0  0  0  0  0  0  0  0  0
    4.6602    1.7041   -0.2439 C   0  0  0  0  0  0  0  0  0  0  0  0
   -1.3495   -2.4997    1.6129 H   0  0  0  0  0  0  0  0  0  0  0  0
   -2.4557   -1.5094    2.5590 H   0  0  0  0  0  0  0  0  0  0  0  0
   -1.6462   -0.4416   -1.4046 H   0  0  0  0  0  0  0  0  0  0  0  0
   -0.6280   -1.6303   -0.6245 H   0  0  0  0  0  0  0  0  0  0  0  0
   -0.3564   -1.1593    3.4799 H   0  0  0  0  0  0  0  0  0  0  0  0
   -0.7555    0.3362    2.6515 H   0  0  0  0  0  0  0  0  0  0  0  0
    0.1504    0.8410   -1.1658 H   0  0  0  0  0  0  0  0  0  0  0  0
   -0.7131    1.3190    0.2781 H   0  0  0  0  0  0  0  0  0  0  0  0
    1.6359   -0.6384    2.4633 H   0  0  0  0  0  0  0  0  0  0  0  0
    0.9866   -1.8684    1.3893 H   0  0  0  0  0  0  0  0  0  0  0  0
   -3.9601   -1.8925    0.9499 H   0  0  0  0  0  0  0  0  0  0  0  0
   -3.0039   -2.5053   -0.3913 H   0  0  0  0  0  0  0  0  0  0  0  0
   -5.0388   -1.3957   -1.1515 H   0  0  0  0  0  0  0  0  0  0  0  0
   -3.6749   -0.4845   -1.7453 H   0  0  0  0  0  0  0  0  0  0  0  0
   -5.3973    0.2096    0.6944 H   0  0  0  0  0  0  0  0  0  0  0  0
   -3.9795    1.1388    0.2000 H   0  0  0  0  0  0  0  0  0  0  0  0
   -6.4624    0.6774   -1.5373 H   0  0  0  0  0  0  0  0  0  0  0  0
   -5.0289    1.5932   -2.0254 H   0  0  0  0  0  0  0  0  0  0  0  0
    4.9605    0.0182   -1.5355 H   0  0  0  0  0  0  0  0  0  0  0  0
    4.0167    3.2363    1.1252 H   0  0  0  0  0  0  0  0  0  0  0  0
   -6.7678    2.2228    0.2583 H   0  0  0  0  0  0  0  0  0  0  0  0
   -6.7807    2.9801   -1.1861 H   0  0  0  0  0  0  0  0  0  0  0  0
    5.6257    2.1510   -0.4515 H   0  0  0  0  0  0  0  0  0  0  0  0
    1.7695   -0.3288   -2.8618 H   0  0  0  0  0  0  0  0  0  0  0  0
    1.6771   -2.0560   -2.8975 H   0  0  0  0  0  0  0  0  0  0  0  0
  1 19  2  0  0  0  0
  2  7  1  0  0  0  0
  2  8  1  0  0  0  0
  2 12  1  0  0  0  0
  3 10  1  0  0  0  0
  3 11  1  0  0  0  0
  3 14  1  0  0  0  0
  4 14  1  0  0  0  0
  4 20  2  0  0  0  0
  5 16  1  0  0  0  0
  5 42  1  0  0  0  0
  5 43  1  0  0  0  0
  6 19  1  0  0  0  0
  6 45  1  0  0  0  0
  6 46  1  0  0  0  0
  7  9  1  0  0  0  0
  7 22  1  0  0  0  0
  7 23  1  0  0  0  0
  8 10  1  0  0  0  0
  8 24  1  0  0  0  0
  8 25  1  0  0  0  0
  9 11  1  0  0  0  0
  9 26  1  0  0  0  0
  9 27  1  0  0  0  0
 10 28  1  0  0  0  0
 10 29  1  0  0  0  0
 11 30  1  0  0  0  0
 11 31  1  0  0  0  0
 12 13  1  0  0  0  0
 12 32  1  0  0  0  0
 12 33  1  0  0  0  0
 13 15  1  0  0  0  0
 13 34  1  0  0  0  0
 13 35  1  0  0  0  0
 14 17  2  0  0  0  0
 15 16  1  0  0  0  0
 15 36  1  0  0  0  0
 15 37  1  0  0  0  0
 16 38  1  0  0  0  0
 16 39  1  0  0  0  0
 17 18  1  0  0  0  0
 17 19  1  0  0  0  0
 18 21  2  0  0  0  0
 18 40  1  0  0  0  0
 20 21  1  0  0  0  0
 20 41  1  0  0  0  0
 21 44  1  0  0  0  0
M  END
>  <PUBCHEM_COMPOUND_CID>
43252523

>  <PUBCHEM_CONFORMER_RMSD>
0.8

>  <PUBCHEM_CONFORMER_DIVERSEORDER>
2
313
305
349
286
97
159
264
104
133
282
263
203
8
33
116
198
333
361
281
170
14
12
368
339
125
40
128
219
32
246
120
258
309
247
152
11
324
214
218
241
355
183
235
372
289
267
80
54
327
331
272
194
134
117
111
358
352
350
300
303
96
209
161
140
375
298
320
243
345
187
180
172
285
291
16
354
59
31
293
63
353
346
162
369
101
212
64
196
56
319
257
92
91
341
158
238
169
66
121
318
178
366
362
253
137
37
344
365
6
181
328
332
15
184
310
259
335
156
244
225
245
232
166
357
311
192
143
108
336
100
304
249
19
200
175
35
228
45
274
302
297
94
359
337
78
21
204
53
224
103
153
86
277
55
252
57
230
248
139
119
110
242
165
376
205
307
288
210
118
342
364
48
321
10
50
76
275
316
250
29
262
145
160
107
367
317
148
13
377
123
207
348
85
213
233
269
36
312
185
373
87
188
222
287
226
44
299
217
323
176
371
106
71
220
295
105
223
301
58
157
70
114
306
254
168
255
197
182
65
46
370
9
201
315
356
251
343
147
131
146
195
81
191
174
199
221
294
68
82
17
138
163
240
338
202
189
18
273
129
98
90
266
30
276
347
179
231
206
284
314
329
115
102
239
186
84
149
292
237
261
142
325
216
193
260
124
296
7
61
144
89
268
20
51
95
141
278
234
211
173
127
290
171
215
27
167
190
374
47
75
351
34
83
3
308
151
150
62
126
135
229
67
330
79
265
1
25
24
60
109
227
256
42
22
4
49
164
334
5
136
23
130
122
326
340
43
72
113
236
322
88
279
208
26
112
154
73
132
52
74
280
41
177
99
28
360
38
93
69
155
270
363
283
39
77
271

>  <PUBCHEM_MMFF94_PARTIAL_CHARGES>
25
1 -0.57
10 0.37
11 0.37
12 0.27
14 0.41
16 0.27
17 0.09
18 -0.15
19 0.54
2 -0.81
20 0.16
21 -0.15
3 -0.84
4 -0.62
40 0.15
41 0.15
42 0.36
43 0.36
44 0.15
45 0.37
46 0.37
5 -0.99
6 -0.8
7 0.27
8 0.27

>  <PUBCHEM_EFFECTIVE_ROTOR_COUNT>
7.4

>  <PUBCHEM_PHARMACOPHORE_FEATURES>
9
1 1 acceptor
1 2 cation
1 3 cation
1 4 acceptor
1 5 cation
1 5 donor
1 6 donor
6 4 14 17 18 20 21 rings
7 2 3 7 8 9 10 11 rings

>  <PUBCHEM_HEAVY_ATOM_COUNT>
21

>  <PUBCHEM_ATOM_DEF_STEREO_COUNT>
0

>  <PUBCHEM_ATOM_UDEF_STEREO_COUNT>
0

>  <PUBCHEM_BOND_DEF_STEREO_COUNT>
0

>  <PUBCHEM_BOND_UDEF_STEREO_COUNT>
0

>  <PUBCHEM_ISOTOPIC_ATOM_COUNT>
0

>  <PUBCHEM_COMPONENT_COUNT>
1

>  <PUBCHEM_CACTVS_TAUTO_COUNT>
2

>  <PUBCHEM_CONFORMER_ID>
0293FB2B00000002

>  <PUBCHEM_MMFF94_ENERGY>
66.6221

>  <PUBCHEM_FEATURE_SELFOVERLAP>
45.671

>  <PUBCHEM_SHAPE_FINGERPRINT>
10906281 52 17822867479971030468
11069576 57 16558194787006804543
12236239 1 14852157507734354872
12422481 6 15286180801740290359
12553582 1 15410901794577364895
12633257 1 16878494769404163116
12916748 109 18114184164108397171
14251740 57 11239701020683887765
14251757 17 18411416168589222293
14848178 5 11023811887185537525
15003188 33 17774165587328444601
15183329 4 14548737267282306841
15375358 24 18262521510566949098
16752209 62 15410624661538011043
17980427 23 16734671003797370238
1813 80 12967119511235256161
18222031 100 13254793542993020681
193927 3 12103560944323917541
200 152 16773809120282303835
20028762 73 15828935810499500600
20645477 70 17846227669290770574
22289505 5 18343581832777914796
23402539 116 17823129193844838086
23557571 272 17750529544421465530
23559900 14 17676210212869733474
23596394 208 18060139855413125781
3060560 45 17916873546903056916
3472631 163 18187358861680681421
351380 3 14476968925842275647
46194498 28 18056193820446403201
495365 180 18343012302971201114
5104073 3 17168133559868993529
59682541 52 16916207877199525381
633830 44 18334565812208655783
960060 61 16845569812248346037

>  <PUBCHEM_SHAPE_MULTIPOLES>
401.4
11.41
2.26
1.81
12.83
0.67
-0.22
8.51
3.63
0.63
-0.16
-0.64
-0.88
1.77

>  <PUBCHEM_SHAPE_SELFOVERLAP>
816.662

>  <PUBCHEM_SHAPE_VOLUME>
229.7

>  <PUBCHEM_COORDINATE_TYPE>
2
5
10

$$$$
