43252498
 OpenBabel01182520543D

 37 38  0  0  0  0  0  0  0  0999 V2000
    1.4190   -2.5093    0.9501 O   0  0  0  0  0  0  0  0  0  0  0  0
   -2.6408    0.4614   -0.2224 N   0  0  0  0  0  0  0  0  0  0  0  0
    0.2123    0.4843   -0.0890 N   0  0  0  0  0  0  0  0  0  0  0  0
    2.1149    1.8549    0.1290 N   0  0  0  0  0  0  0  0  0  0  0  0
   -6.2537   -0.2557    0.3842 N   0  0  0  0  0  0  0  0  0  0  0  0
    1.6234   -2.4143   -1.3320 N   0  0  0  0  0  0  0  0  0  0  0  0
   -1.8391    0.4442   -1.4519 C   0  0  0  0  0  0  0  0  0  0  0  0
   -1.9415   -0.2719    0.8400 C   0  0  0  0  0  0  0  0  0  0  0  0
   -0.4744    1.1005   -1.2283 C   0  0  0  0  0  0  0  0  0  0  0  0
   -0.5811    0.3614    1.1404 C   0  0  0  0  0  0  0  0  0  0  0  0
   -3.9614   -0.1192   -0.4628 C   0  0  0  0  0  0  0  0  0  0  0  0
    1.6007    0.6082    0.0342 C   0  0  0  0  0  0  0  0  0  0  0  0
   -4.9320    0.3091    0.6337 C   0  0  0  0  0  0  0  0  0  0  0  0
    2.3633   -0.5486    0.0494 C   0  0  0  0  0  0  0  0  0  0  0  0
    3.7424   -0.4175    0.1694 C   0  0  0  0  0  0  0  0  0  0  0  0
    1.7803   -1.8789   -0.0578 C   0  0  0  0  0  0  0  0  0  0  0  0
    3.4590    1.9429    0.2444 C   0  0  0  0  0  0  0  0  0  0  0  0
    4.3086    0.8486    0.2694 C   0  0  0  0  0  0  0  0  0  0  0  0
   -2.3532    0.9973   -2.2474 H   0  0  0  0  0  0  0  0  0  0  0  0
   -1.6984   -0.5856   -1.8074 H   0  0  0  0  0  0  0  0  0  0  0  0
   -1.7968   -1.3231    0.5553 H   0  0  0  0  0  0  0  0  0  0  0  0
   -2.5110   -0.2656    1.7746 H   0  0  0  0  0  0  0  0  0  0  0  0
    0.1255    0.9844   -2.1393 H   0  0  0  0  0  0  0  0  0  0  0  0
   -0.5953    2.1758   -1.0461 H   0  0  0  0  0  0  0  0  0  0  0  0
   -0.7157    1.3556    1.5855 H   0  0  0  0  0  0  0  0  0  0  0  0
   -0.0601   -0.2585    1.8801 H   0  0  0  0  0  0  0  0  0  0  0  0
   -4.3606    0.2505   -1.4173 H   0  0  0  0  0  0  0  0  0  0  0  0
   -3.9113   -1.2131   -0.5472 H   0  0  0  0  0  0  0  0  0  0  0  0
   -4.6074   -0.0251    1.6233 H   0  0  0  0  0  0  0  0  0  0  0  0
   -5.0137    1.4015    0.6631 H   0  0  0  0  0  0  0  0  0  0  0  0
   -6.8810    0.0024    1.1448 H   0  0  0  0  0  0  0  0  0  0  0  0
   -6.1992   -1.2735    0.3917 H   0  0  0  0  0  0  0  0  0  0  0  0
    4.3858   -1.2932    0.1861 H   0  0  0  0  0  0  0  0  0  0  0  0
    3.8507    2.9519    0.3190 H   0  0  0  0  0  0  0  0  0  0  0  0
    5.3811    0.9749    0.3637 H   0  0  0  0  0  0  0  0  0  0  0  0
    1.9042   -1.9100   -2.1669 H   0  0  0  0  0  0  0  0  0  0  0  0
    1.2164   -3.3341   -1.4651 H   0  0  0  0  0  0  0  0  0  0  0  0
  1 16  2  0  0  0  0
  2  7  1  0  0  0  0
  2  8  1  0  0  0  0
  2 11  1  0  0  0  0
  3  9  1  0  0  0  0
  3 10  1  0  0  0  0
  3 12  1  0  0  0  0
  4 12  1  0  0  0  0
  4 17  2  0  0  0  0
  5 13  1  0  0  0  0
  5 31  1  0  0  0  0
  5 32  1  0  0  0  0
  6 16  1  0  0  0  0
  6 36  1  0  0  0  0
  6 37  1  0  0  0  0
  7  9  1  0  0  0  0
  7 19  1  0  0  0  0
  7 20  1  0  0  0  0
  8 10  1  0  0  0  0
  8 21  1  0  0  0  0
  8 22  1  0  0  0  0
  9 23  1  0  0  0  0
  9 24  1  0  0  0  0
 10 25  1  0  0  0  0
 10 26  1  0  0  0  0
 11 13  1  0  0  0  0
 11 27  1  0  0  0  0
 11 28  1  0  0  0  0
 12 14  2  0  0  0  0
 13 29  1  0  0  0  0
 13 30  1  0  0  0  0
 14 15  1  0  0  0  0
 14 16  1  0  0  0  0
 15 18  2  0  0  0  0
 15 33  1  0  0  0  0
 17 18  1  0  0  0  0
 17 34  1  0  0  0  0
 18 35  1  0  0  0  0
M  END
>  <PUBCHEM_COMPOUND_CID>
43252498

>  <PUBCHEM_CONFORMER_RMSD>
0.8

>  <PUBCHEM_CONFORMER_DIVERSEORDER>
1
13
17
3
2
5
15
12
19
20
8
14
21
18
11
7
4
16
10
6
9

>  <PUBCHEM_MMFF94_PARTIAL_CHARGES>
25
1 -0.57
10 0.37
11 0.27
12 0.41
13 0.27
14 0.09
15 -0.15
16 0.54
17 0.16
18 -0.15
2 -0.81
3 -0.84
31 0.36
32 0.36
33 0.15
34 0.15
35 0.15
36 0.37
37 0.37
4 -0.62
5 -0.99
6 -0.8
7 0.27
8 0.27
9 0.37

>  <PUBCHEM_EFFECTIVE_ROTOR_COUNT>
5.2

>  <PUBCHEM_PHARMACOPHORE_FEATURES>
9
1 1 acceptor
1 2 cation
1 3 cation
1 4 acceptor
1 5 cation
1 5 donor
1 6 donor
6 2 3 7 8 9 10 rings
6 4 12 14 15 17 18 rings

>  <PUBCHEM_HEAVY_ATOM_COUNT>
18

>  <PUBCHEM_ATOM_DEF_STEREO_COUNT>
0

>  <PUBCHEM_ATOM_UDEF_STEREO_COUNT>
0

>  <PUBCHEM_BOND_DEF_STEREO_COUNT>
0

>  <PUBCHEM_BOND_UDEF_STEREO_COUNT>
0

>  <PUBCHEM_ISOTOPIC_ATOM_COUNT>
0

>  <PUBCHEM_COMPONENT_COUNT>
1

>  <PUBCHEM_CACTVS_TAUTO_COUNT>
2

>  <PUBCHEM_CONFORMER_ID>
0293FB1200000001

>  <PUBCHEM_MMFF94_ENERGY>
57.9432

>  <PUBCHEM_FEATURE_SELFOVERLAP>
45.673

>  <PUBCHEM_SHAPE_FINGERPRINT>
11471102 20 18410571790687147384
12107183 9 17624144798019806241
12236239 1 17418093239034937752
12592029 89 18334850611173497202
12596602 18 17918000503361253147
12670546 56 18201441342353661833
13538477 17 16988832904165696189
13760787 19 17846497071578252479
13836976 161 18412266163970078948
14251717 144 18412261731479511090
14252887 29 18041002825841550753
14386348 63 17676211264788516139
15219456 202 18187355498220121988
15342168 16 18192995052568791300
15375358 24 17967532380773320737
16945 1 18263347153974159404
17834072 33 18272649078306300295
18186145 218 18201428229697200652
19141452 34 18186804725285026819
200 152 18344142587923647249
20279233 1 17749396957508564059
20344682 1 17967530186066326620
20645477 70 18341332210623152047
22224240 67 18336822108383595032
23402539 116 17168133577048634311
23557571 272 16733261253501295079
3060560 45 18412826906605774212
31174 14 18336262332163111614
33824 294 18335137583449987554
42630746 31 18410575085027264235
4340502 62 18342461478032281083
465052 167 18040432188060174306
621550 34 18187358831188681269
69090 78 18260263083766373907
77492 1 17489583472288232236
81228 2 17169276935897900061
8272917 22 18201727219186157767
9999458 23 18259985998625892086

>  <PUBCHEM_SHAPE_MULTIPOLES>
339.66
9.39
1.95
1.11
12.45
1.04
-0.23
-1.27
1.65
-2.41
-0.13
0.41
0.11
0.36

>  <PUBCHEM_SHAPE_SELFOVERLAP>
702.501

>  <PUBCHEM_SHAPE_VOLUME>
193.7

>  <PUBCHEM_COORDINATE_TYPE>
2
5
10

$$$$
