43275312
 OpenBabel01182520543D

 30 31  0  0  0  0  0  0  0  0999 V2000
    1.7043    2.3951    1.2249 O   0  0  0  0  0  0  0  0  0  0  0  0
   -0.4517   -0.0301    0.1906 N   0  0  0  0  0  0  0  0  0  0  0  0
    0.9876   -1.8647   -0.0390 N   0  0  0  0  0  0  0  0  0  0  0  0
    1.5025    2.5324   -1.0553 N   0  0  0  0  0  0  0  0  0  0  0  0
   -2.8759   -0.0255    0.4333 C   0  0  0  0  0  0  0  0  0  0  0  0
   -3.4186    0.6321   -0.8527 C   0  0  0  0  0  0  0  0  0  0  0  0
   -4.1928   -0.8274    0.4877 C   0  0  0  0  0  0  0  0  0  0  0  0
   -4.8339    0.3171   -0.3245 C   0  0  0  0  0  0  0  0  0  0  0  0
   -1.6297   -0.8642    0.2385 C   0  0  0  0  0  0  0  0  0  0  0  0
    0.8352   -0.5245    0.0527 C   0  0  0  0  0  0  0  0  0  0  0  0
    1.8848    0.3795    0.0197 C   0  0  0  0  0  0  0  0  0  0  0  0
    3.1737   -0.1242   -0.1162 C   0  0  0  0  0  0  0  0  0  0  0  0
    1.6891    1.8190    0.1241 C   0  0  0  0  0  0  0  0  0  0  0  0
    2.2548   -2.3173   -0.1702 C   0  0  0  0  0  0  0  0  0  0  0  0
    3.3707   -1.4972   -0.2136 C   0  0  0  0  0  0  0  0  0  0  0  0
   -2.7921    0.6772    1.2748 H   0  0  0  0  0  0  0  0  0  0  0  0
   -3.1747    0.1058   -1.7832 H   0  0  0  0  0  0  0  0  0  0  0  0
   -3.1876    1.6934   -0.9762 H   0  0  0  0  0  0  0  0  0  0  0  0
   -4.6103   -0.9890    1.4850 H   0  0  0  0  0  0  0  0  0  0  0  0
   -4.1726   -1.7840   -0.0480 H   0  0  0  0  0  0  0  0  0  0  0  0
   -5.2615    1.1134    0.2955 H   0  0  0  0  0  0  0  0  0  0  0  0
   -5.5670    0.0155   -1.0765 H   0  0  0  0  0  0  0  0  0  0  0  0
   -1.7024   -1.4679   -0.6745 H   0  0  0  0  0  0  0  0  0  0  0  0
   -1.5380   -1.5604    1.0814 H   0  0  0  0  0  0  0  0  0  0  0  0
   -0.5985    0.9462   -0.0434 H   0  0  0  0  0  0  0  0  0  0  0  0
    4.0318    0.5421   -0.1466 H   0  0  0  0  0  0  0  0  0  0  0  0
    2.3546   -3.3953   -0.2421 H   0  0  0  0  0  0  0  0  0  0  0  0
    4.3664   -1.9124   -0.3199 H   0  0  0  0  0  0  0  0  0  0  0  0
    1.4936    2.0795   -1.9636 H   0  0  0  0  0  0  0  0  0  0  0  0
    1.3675    3.5378   -1.0412 H   0  0  0  0  0  0  0  0  0  0  0  0
  1 13  2  0  0  0  0
  2  9  1  0  0  0  0
  2 10  1  0  0  0  0
  2 25  1  0  0  0  0
  3 10  1  0  0  0  0
  3 14  2  0  0  0  0
  4 13  1  0  0  0  0
  4 29  1  0  0  0  0
  4 30  1  0  0  0  0
  5  6  1  0  0  0  0
  5  7  1  0  0  0  0
  5  9  1  0  0  0  0
  5 16  1  0  0  0  0
  6  8  1  0  0  0  0
  6 17  1  0  0  0  0
  6 18  1  0  0  0  0
  7  8  1  0  0  0  0
  7 19  1  0  0  0  0
  7 20  1  0  0  0  0
  8 21  1  0  0  0  0
  8 22  1  0  0  0  0
  9 23  1  0  0  0  0
  9 24  1  0  0  0  0
 10 11  2  0  0  0  0
 11 12  1  0  0  0  0
 11 13  1  0  0  0  0
 12 15  2  0  0  0  0
 12 26  1  0  0  0  0
 14 15  1  0  0  0  0
 14 27  1  0  0  0  0
 15 28  1  0  0  0  0
M  END
>  <PUBCHEM_COMPOUND_CID>
43275312

>  <PUBCHEM_CONFORMER_RMSD>
0.6

>  <PUBCHEM_CONFORMER_DIVERSEORDER>
3
30
46
48
39
44
49
41
38
23
29
47
45
42
1
40
43
7
10
12
51
8
9
35
4
50
20
34
18
36
27
33
11
6
14
24
17
2
19
13
15
5
32
31
21
26
28
37
25
22
16

>  <PUBCHEM_MMFF94_PARTIAL_CHARGES>
17
1 -0.57
10 0.41
11 0.09
12 -0.15
13 0.54
14 0.16
15 -0.15
2 -0.87
25 0.4
26 0.15
27 0.15
28 0.15
29 0.37
3 -0.62
30 0.37
4 -0.8
9 0.37

>  <PUBCHEM_EFFECTIVE_ROTOR_COUNT>
4.8

>  <PUBCHEM_PHARMACOPHORE_FEATURES>
7
1 1 acceptor
1 2 cation
1 2 donor
1 3 acceptor
1 4 donor
4 5 6 7 8 rings
6 3 10 11 12 14 15 rings

>  <PUBCHEM_HEAVY_ATOM_COUNT>
15

>  <PUBCHEM_ATOM_DEF_STEREO_COUNT>
0

>  <PUBCHEM_ATOM_UDEF_STEREO_COUNT>
0

>  <PUBCHEM_BOND_DEF_STEREO_COUNT>
0

>  <PUBCHEM_BOND_UDEF_STEREO_COUNT>
0

>  <PUBCHEM_ISOTOPIC_ATOM_COUNT>
0

>  <PUBCHEM_COMPONENT_COUNT>
1

>  <PUBCHEM_CACTVS_TAUTO_COUNT>
7

>  <PUBCHEM_CONFORMER_ID>
0294543000000003

>  <PUBCHEM_MMFF94_ENERGY>
56.0845

>  <PUBCHEM_FEATURE_SELFOVERLAP>
35.521

>  <PUBCHEM_SHAPE_FINGERPRINT>
10608611 8 18334293193259070567
11471102 20 18411135827003511534
11615757 297 18273502277701864755
116883 192 17623294866403783502
12654215 9 18408882919446765124
13134695 92 18201430351020602628
13922767 16 18411696603877385594
14250199 8 18410292519302842821
14251717 144 18412544292808920399
14648413 74 18116158942172219560
15442244 35 18197221343226237377
15477762 27 18413109433200956910
15848700 24 18340768126982974494
17041 50 18261672580200182573
17134986 127 17974300020913979100
17802600 8 18409162191195105637
18186145 218 18186515493454629891
18410436 195 18271524187432000712
200 152 18131345294255126015
20339313 130 18271811172545998214
20559304 39 18272092690440597112
20606313 2 18410012117719939358
20645477 70 18342175557690728591
20671657 1 18341898544868345261
20671657 53 18268435641768195531
20708731 107 18336272313920198140
21639500 275 18342730862427938653
22096605 113 18341889762023975049
221490 88 18336837497162206995
22289505 5 18264480707265076949
2255824 54 18410578422058526286
22854114 111 18340769337984215337
22892500 29 18411694391937625245
22943178 12 18187648033423428555
23402655 69 18341048536723250311
23419403 2 17555698094419690696
23526113 38 17822582611542524266
23558518 356 17902504123470425674
23559900 14 18334010614407323075
2748010 2 18122354741861088234
3060560 45 18272653428681468942
3071541 158 18335706026740193076
5281201 14 18334016082048345213
6049 1 18041574602110943115
7364860 26 18343018917183725144
7471813 234 17775272838276408609
81228 2 17762351210291722650
93112 12 18410573985658152191
9709674 26 18334862761789510323
9971528 1 18130222666686114618

>  <PUBCHEM_SHAPE_MULTIPOLES>
287.88
7.87
2.37
0.83
9.49
0.9
-0.01
-1.23
0.56
-2.64
0.03
0.1
0.34
0.54

>  <PUBCHEM_SHAPE_SELFOVERLAP>
601.064

>  <PUBCHEM_SHAPE_VOLUME>
163.4

>  <PUBCHEM_COORDINATE_TYPE>
2
5
10

$$$$
