43319525
 OpenBabel01182520543D

 41 42  0  0  1  0  0  0  0  0999 V2000
   -1.2352   -2.6038    1.3227 O   0  0  0  0  0  0  0  0  0  0  0  0
    0.4278   -0.0212   -0.1138 N   0  0  0  0  0  0  0  0  0  0  0  0
   -1.1907    0.7951   -1.6185 N   0  0  0  0  0  0  0  0  0  0  0  0
    1.3239    4.7608    0.5900 N   0  0  0  0  0  0  0  0  0  0  0  0
   -1.5339   -0.7482    2.6362 N   0  0  0  0  0  0  0  0  0  0  0  0
    1.2973   -1.0602   -0.6011 C   0  0  0  0  0  0  0  0  0  0  0  0
    2.5244   -0.4804   -1.2887 C   0  0  0  0  0  0  0  0  0  0  0  0
    1.9022   -1.8699    0.5364 C   0  0  0  0  0  0  0  0  0  0  0  0
    3.5412   -1.6165   -1.2548 C   0  0  0  0  0  0  0  0  0  0  0  0
    3.1351   -2.5161   -0.0861 C   0  0  0  0  0  0  0  0  0  0  0  0
    0.9741    0.9651    0.8177 C   0  0  0  0  0  0  0  0  0  0  0  0
   -0.9100    0.0587   -0.5200 C   0  0  0  0  0  0  0  0  0  0  0  0
    0.8866    2.3744    0.2358 C   0  0  0  0  0  0  0  0  0  0  0  0
   -1.8629   -0.6163    0.2257 C   0  0  0  0  0  0  0  0  0  0  0  0
    1.4477    3.4348    1.1851 C   0  0  0  0  0  0  0  0  0  0  0  0
   -3.1894   -0.5301   -0.1822 C   0  0  0  0  0  0  0  0  0  0  0  0
   -1.5297   -1.3998    1.4074 C   0  0  0  0  0  0  0  0  0  0  0  0
   -2.4908    0.8556   -1.9845 C   0  0  0  0  0  0  0  0  0  0  0  0
   -3.5178    0.2178   -1.3074 C   0  0  0  0  0  0  0  0  0  0  0  0
    0.7735   -1.7341   -1.2932 H   0  0  0  0  0  0  0  0  0  0  0  0
    2.9533    0.3878   -0.7793 H   0  0  0  0  0  0  0  0  0  0  0  0
    2.3044   -0.1653   -2.3145 H   0  0  0  0  0  0  0  0  0  0  0  0
    1.2187   -2.6348    0.9128 H   0  0  0  0  0  0  0  0  0  0  0  0
    2.2092   -1.2728    1.4001 H   0  0  0  0  0  0  0  0  0  0  0  0
    4.5608   -1.2354   -1.1382 H   0  0  0  0  0  0  0  0  0  0  0  0
    3.5098   -2.1863   -2.1906 H   0  0  0  0  0  0  0  0  0  0  0  0
    2.8953   -3.5195   -0.4565 H   0  0  0  0  0  0  0  0  0  0  0  0
    3.9431   -2.6217    0.6451 H   0  0  0  0  0  0  0  0  0  0  0  0
    0.4139    0.9296    1.7584 H   0  0  0  0  0  0  0  0  0  0  0  0
    2.0155    0.7704    1.0913 H   0  0  0  0  0  0  0  0  0  0  0  0
   -0.1582    2.6300    0.0208 H   0  0  0  0  0  0  0  0  0  0  0  0
    1.4230    2.4114   -0.7212 H   0  0  0  0  0  0  0  0  0  0  0  0
    2.5019    3.2293    1.4003 H   0  0  0  0  0  0  0  0  0  0  0  0
    0.9020    3.4159    2.1345 H   0  0  0  0  0  0  0  0  0  0  0  0
   -3.9755   -1.0405    0.3680 H   0  0  0  0  0  0  0  0  0  0  0  0
   -2.6941    1.4517   -2.8680 H   0  0  0  0  0  0  0  0  0  0  0  0
   -4.5450    0.2993   -1.6437 H   0  0  0  0  0  0  0  0  0  0  0  0
    1.8519    4.7967   -0.2811 H   0  0  0  0  0  0  0  0  0  0  0  0
    1.7479    5.4499    1.2097 H   0  0  0  0  0  0  0  0  0  0  0  0
   -1.7687    0.2354    2.7244 H   0  0  0  0  0  0  0  0  0  0  0  0
   -1.3012   -1.2438    3.4903 H   0  0  0  0  0  0  0  0  0  0  0  0
  1 17  2  0  0  0  0
  2  6  1  0  0  0  0
  2 11  1  0  0  0  0
  2 12  1  0  0  0  0
  3 12  1  0  0  0  0
  3 18  2  0  0  0  0
  4 15  1  0  0  0  0
  4 38  1  0  0  0  0
  4 39  1  0  0  0  0
  5 17  1  0  0  0  0
  5 40  1  0  0  0  0
  5 41  1  0  0  0  0
  6  7  1  0  0  0  0
  6  8  1  0  0  0  0
  6 20  1  0  0  0  0
  7  9  1  0  0  0  0
  7 21  1  0  0  0  0
  7 22  1  0  0  0  0
  8 10  1  0  0  0  0
  8 23  1  0  0  0  0
  8 24  1  0  0  0  0
  9 10  1  0  0  0  0
  9 25  1  0  0  0  0
  9 26  1  0  0  0  0
 10 27  1  0  0  0  0
 10 28  1  0  0  0  0
 11 13  1  0  0  0  0
 11 29  1  0  0  0  0
 11 30  1  0  0  0  0
 12 14  2  0  0  0  0
 13 15  1  0  0  0  0
 13 31  1  0  0  0  0
 13 32  1  0  0  0  0
 14 16  1  0  0  0  0
 14 17  1  0  0  0  0
 15 33  1  0  0  0  0
 15 34  1  0  0  0  0
 16 19  2  0  0  0  0
 16 35  1  0  0  0  0
 18 19  1  0  0  0  0
 18 36  1  0  0  0  0
 19 37  1  0  0  0  0
M  END
>  <PUBCHEM_COMPOUND_CID>
43319525

>  <PUBCHEM_CONFORMER_RMSD>
0.8

>  <PUBCHEM_CONFORMER_DIVERSEORDER>
1
57
73
62
21
51
56
38
33
47
29
53
26
59
25
50
15
7
69
12
35
20
58
41
13
17
37
49
66
23
16
32
39
61
8
71
63
31
22
3
65
74
9
40
42
19
48
24
45
67
43
11
64
68
55
4
70
6
54
10
30
14
44
36
34
52
18
27
60
28
72
46
5
2

>  <PUBCHEM_MMFF94_PARTIAL_CHARGES>
21
1 -0.57
11 0.37
12 0.41
14 0.09
15 0.27
16 -0.15
17 0.54
18 0.16
19 -0.15
2 -0.84
3 -0.62
35 0.15
36 0.15
37 0.15
38 0.36
39 0.36
4 -0.99
40 0.37
41 0.37
5 -0.8
6 0.37

>  <PUBCHEM_EFFECTIVE_ROTOR_COUNT>
7

>  <PUBCHEM_PHARMACOPHORE_FEATURES>
8
1 1 acceptor
1 2 cation
1 3 acceptor
1 4 cation
1 4 donor
1 5 donor
5 6 7 8 9 10 rings
6 3 12 14 16 18 19 rings

>  <PUBCHEM_HEAVY_ATOM_COUNT>
19

>  <PUBCHEM_ATOM_DEF_STEREO_COUNT>
0

>  <PUBCHEM_ATOM_UDEF_STEREO_COUNT>
0

>  <PUBCHEM_BOND_DEF_STEREO_COUNT>
0

>  <PUBCHEM_BOND_UDEF_STEREO_COUNT>
0

>  <PUBCHEM_ISOTOPIC_ATOM_COUNT>
0

>  <PUBCHEM_COMPONENT_COUNT>
1

>  <PUBCHEM_CACTVS_TAUTO_COUNT>
2

>  <PUBCHEM_CONFORMER_ID>
029500E500000001

>  <PUBCHEM_MMFF94_ENERGY>
68.0963

>  <PUBCHEM_FEATURE_SELFOVERLAP>
40.596

>  <PUBCHEM_SHAPE_FINGERPRINT>
11578080 2 17972907970484182993
12716301 132 17168139083249572553
12788726 201 17907307554848606072
13681431 1 18201999936872550152
13911987 19 18339093669995755638
14181834 199 17201609303572475124
14817 1 11968233958745303969
15906896 17 17475254409000320128
16945 1 18341883053253702671
1813 80 17560258928712364084
18915476 22 18197781222214673365
20361792 2 17916862417999188974
20600515 1 17971169483829031432
20671657 53 18058999593188633463
20832881 197 18265049142202724277
21524375 3 17549800623017101360
22182313 1 17824257327404304051
22802520 49 17604448360798589887
23175994 123 18341337682121246103
23419403 2 18190480413419154233
23526113 38 18336255782374856427
23558518 356 17544764426207677602
2748010 2 17825396442413670595
3250762 1 18264202693958166371
3286 77 18410295805069044287
81228 2 17910398282060807576
9981440 41 17838029856871309601

>  <PUBCHEM_SHAPE_MULTIPOLES>
365.22
5.04
3.87
1.87
0.5
6.81
0.36
-3.3
-2.5
2.51
2
-1.01
-0.37
1.24

>  <PUBCHEM_SHAPE_SELFOVERLAP>
755.29

>  <PUBCHEM_SHAPE_VOLUME>
208.8

>  <PUBCHEM_COORDINATE_TYPE>
2
5
10

$$$$
