43317132
 OpenBabel01182520543D

 33 34  0  0  0  0  0  0  0  0999 V2000
   -1.8252   -2.3797   -1.3075 O   0  0  0  0  0  0  0  0  0  0  0  0
    0.1504    0.1443   -0.2129 N   0  0  0  0  0  0  0  0  0  0  0  0
   -1.4046    1.8726    0.0874 N   0  0  0  0  0  0  0  0  0  0  0  0
   -1.6169   -2.5751    0.9678 N   0  0  0  0  0  0  0  0  0  0  0  0
    2.5648    0.2765   -0.4145 C   0  0  0  0  0  0  0  0  0  0  0  0
    3.8015    1.1693   -0.4415 C   0  0  0  0  0  0  0  0  0  0  0  0
    2.8644   -0.6591    0.7524 C   0  0  0  0  0  0  0  0  0  0  0  0
    4.9556    0.2134   -0.1553 C   0  0  0  0  0  0  0  0  0  0  0  0
    4.3502   -0.9693    0.6028 C   0  0  0  0  0  0  0  0  0  0  0  0
    1.2702    1.0518   -0.2432 C   0  0  0  0  0  0  0  0  0  0  0  0
   -1.1662    0.5492   -0.0513 C   0  0  0  0  0  0  0  0  0  0  0  0
   -2.1540   -0.4225   -0.0392 C   0  0  0  0  0  0  0  0  0  0  0  0
   -3.4713   -0.0093    0.1258 C   0  0  0  0  0  0  0  0  0  0  0  0
   -1.8653   -1.8423   -0.1880 C   0  0  0  0  0  0  0  0  0  0  0  0
   -2.6970    2.2365    0.2456 C   0  0  0  0  0  0  0  0  0  0  0  0
   -3.7565    1.3438    0.2716 C   0  0  0  0  0  0  0  0  0  0  0  0
    2.5262   -0.3111   -1.3427 H   0  0  0  0  0  0  0  0  0  0  0  0
    3.7504    1.9321    0.3452 H   0  0  0  0  0  0  0  0  0  0  0  0
    3.9236    1.6838   -1.3996 H   0  0  0  0  0  0  0  0  0  0  0  0
    2.2583   -1.5702    0.7319 H   0  0  0  0  0  0  0  0  0  0  0  0
    2.6870   -0.1583    1.7122 H   0  0  0  0  0  0  0  0  0  0  0  0
    5.7452    0.7055    0.4216 H   0  0  0  0  0  0  0  0  0  0  0  0
    5.4035   -0.1367   -1.0924 H   0  0  0  0  0  0  0  0  0  0  0  0
    4.4909   -1.8903    0.0251 H   0  0  0  0  0  0  0  0  0  0  0  0
    4.8272   -1.1169    1.5769 H   0  0  0  0  0  0  0  0  0  0  0  0
    1.1564    1.7555   -1.0767 H   0  0  0  0  0  0  0  0  0  0  0  0
    1.3010    1.6388    0.6831 H   0  0  0  0  0  0  0  0  0  0  0  0
    0.2975   -0.7709   -0.6260 H   0  0  0  0  0  0  0  0  0  0  0  0
   -4.2836   -0.7313    0.1427 H   0  0  0  0  0  0  0  0  0  0  0  0
   -2.8662    3.3026    0.3551 H   0  0  0  0  0  0  0  0  0  0  0  0
   -4.7758    1.6889    0.4015 H   0  0  0  0  0  0  0  0  0  0  0  0
   -1.6374   -2.1512    1.8899 H   0  0  0  0  0  0  0  0  0  0  0  0
   -1.4041   -3.5660    0.9218 H   0  0  0  0  0  0  0  0  0  0  0  0
  1 14  2  0  0  0  0
  2 10  1  0  0  0  0
  2 11  1  0  0  0  0
  2 28  1  0  0  0  0
  3 11  1  0  0  0  0
  3 15  2  0  0  0  0
  4 14  1  0  0  0  0
  4 32  1  0  0  0  0
  4 33  1  0  0  0  0
  5  6  1  0  0  0  0
  5  7  1  0  0  0  0
  5 10  1  0  0  0  0
  5 17  1  0  0  0  0
  6  8  1  0  0  0  0
  6 18  1  0  0  0  0
  6 19  1  0  0  0  0
  7  9  1  0  0  0  0
  7 20  1  0  0  0  0
  7 21  1  0  0  0  0
  8  9  1  0  0  0  0
  8 22  1  0  0  0  0
  8 23  1  0  0  0  0
  9 24  1  0  0  0  0
  9 25  1  0  0  0  0
 10 26  1  0  0  0  0
 10 27  1  0  0  0  0
 11 12  2  0  0  0  0
 12 13  1  0  0  0  0
 12 14  1  0  0  0  0
 13 16  2  0  0  0  0
 13 29  1  0  0  0  0
 15 16  1  0  0  0  0
 15 30  1  0  0  0  0
 16 31  1  0  0  0  0
M  END
>  <PUBCHEM_COMPOUND_CID>
43317132

>  <PUBCHEM_CONFORMER_RMSD>
0.6

>  <PUBCHEM_CONFORMER_DIVERSEORDER>
1
43
52
72
35
14
17
66
41
61
51
60
33
57
38
12
71
3
62
56
63
13
28
69
19
42
50
9
4
55
25
59
34
70
64
6
58
67
45
5
2
39
29
18
37
31
68
21
36
20
27
46
8
53
47
54
7
65
32
16
24
11
30
10
15
26
22
23
44
40
48
49

>  <PUBCHEM_MMFF94_PARTIAL_CHARGES>
17
1 -0.57
10 0.37
11 0.41
12 0.09
13 -0.15
14 0.54
15 0.16
16 -0.15
2 -0.87
28 0.4
29 0.15
3 -0.62
30 0.15
31 0.15
32 0.37
33 0.37
4 -0.8

>  <PUBCHEM_EFFECTIVE_ROTOR_COUNT>
5

>  <PUBCHEM_PHARMACOPHORE_FEATURES>
7
1 1 acceptor
1 2 cation
1 2 donor
1 3 acceptor
1 4 donor
5 5 6 7 8 9 rings
6 3 11 12 13 15 16 rings

>  <PUBCHEM_HEAVY_ATOM_COUNT>
16

>  <PUBCHEM_ATOM_DEF_STEREO_COUNT>
0

>  <PUBCHEM_ATOM_UDEF_STEREO_COUNT>
0

>  <PUBCHEM_BOND_DEF_STEREO_COUNT>
0

>  <PUBCHEM_BOND_UDEF_STEREO_COUNT>
0

>  <PUBCHEM_ISOTOPIC_ATOM_COUNT>
0

>  <PUBCHEM_COMPONENT_COUNT>
1

>  <PUBCHEM_CACTVS_TAUTO_COUNT>
7

>  <PUBCHEM_CONFORMER_ID>
0294F78C00000001

>  <PUBCHEM_MMFF94_ENERGY>
50.9116

>  <PUBCHEM_FEATURE_SELFOVERLAP>
35.521

>  <PUBCHEM_SHAPE_FINGERPRINT>
10366900 7 17346595262155984472
10616163 171 18411421739130143734
12251169 10 18408886217992464404
12346177 29 18130776876101429599
12500047 106 18343295942648287000
12592029 89 18190750730450683771
12670545 47 17489299823957674320
13167823 11 18334576832983701040
13380535 76 18342177717826916527
13760787 19 18408609167185379636
13862211 1 18341049727030915695
14965852 173 18410291445344812356
15042514 8 18339085986162430563
15242433 33 18334297552661503508
15375358 24 17846500309746327220
15669948 3 18412824719876563678
17804303 29 18342459252790945688
19050596 39 18334573573167021744
20279233 1 17274826852624146252
20281475 54 18260543438062432310
20442098 301 18412822517033328270
20510252 161 18201443510879779097
20645477 56 18341898467432534712
20681677 155 18409451362911369048
21524375 3 18339922594035578529
23402539 116 18272080600746086029
23402655 69 18333734615846315188
23559900 14 18273495650910192144
23598291 2 18114189678318885044
23728640 28 18412544331732865827
4214541 1 18410293597229046108
474 4 17387422439925784292
5104073 3 18408886252357562776
559249 180 18264765468171356490
5706482 22 18341049619302805203
573450 72 18409440376147551618
58051976 100 18335143106983437756
5924683 9 18058716018078630918
69090 78 18410291376477590585
77779 3 18409169905072498200
9709674 26 18342182154597016974

>  <PUBCHEM_SHAPE_MULTIPOLES>
308.46
8.8
2.35
0.83
8.64
0.93
0.04
-1.25
-0.61
-2.31
-0.01
0.04
0.33
-0.78

>  <PUBCHEM_SHAPE_SELFOVERLAP>
643.846

>  <PUBCHEM_SHAPE_VOLUME>
175.2

>  <PUBCHEM_COORDINATE_TYPE>
2
5
10

$$$$
