43420783
 OpenBabel01182520543D

 30 30  0  0  0  0  0  0  0  0999 V2000
    4.3436    1.1154    0.5945 O   0  0  0  0  0  0  0  0  0  0  0  0
   -1.9327   -2.4018   -1.2555 O   0  0  0  0  0  0  0  0  0  0  0  0
    0.1054    0.2383   -0.6688 N   0  0  0  0  0  0  0  0  0  0  0  0
    2.9349   -0.3894   -0.4895 N   0  0  0  0  0  0  0  0  0  0  0  0
   -1.4215    1.8810    0.0098 N   0  0  0  0  0  0  0  0  0  0  0  0
   -1.1625   -2.5626    0.8984 N   0  0  0  0  0  0  0  0  0  0  0  0
    1.1315    1.2090   -0.9694 C   0  0  0  0  0  0  0  0  0  0  0  0
    2.3895    0.5142   -1.4668 C   0  0  0  0  0  0  0  0  0  0  0  0
   -1.1507    0.5713   -0.1882 C   0  0  0  0  0  0  0  0  0  0  0  0
   -2.0495   -0.4530    0.0621 C   0  0  0  0  0  0  0  0  0  0  0  0
   -3.3072   -0.1114    0.5468 C   0  0  0  0  0  0  0  0  0  0  0  0
    3.8705   -0.0104    0.4633 C   0  0  0  0  0  0  0  0  0  0  0  0
   -3.6232    1.2253    0.7633 C   0  0  0  0  0  0  0  0  0  0  0  0
   -1.7273   -1.8562   -0.1583 C   0  0  0  0  0  0  0  0  0  0  0  0
   -2.6539    2.1746    0.4817 C   0  0  0  0  0  0  0  0  0  0  0  0
    4.2532   -1.1441    1.3766 C   0  0  0  0  0  0  0  0  0  0  0  0
    0.7771    1.9003   -1.7426 H   0  0  0  0  0  0  0  0  0  0  0  0
    1.3637    1.7949   -0.0718 H   0  0  0  0  0  0  0  0  0  0  0  0
    2.1740   -0.0760   -2.3644 H   0  0  0  0  0  0  0  0  0  0  0  0
    3.1476    1.2613   -1.7258 H   0  0  0  0  0  0  0  0  0  0  0  0
    0.4115   -0.7200   -0.5380 H   0  0  0  0  0  0  0  0  0  0  0  0
    2.6046   -1.3501   -0.4986 H   0  0  0  0  0  0  0  0  0  0  0  0
   -4.0487   -0.8769    0.7597 H   0  0  0  0  0  0  0  0  0  0  0  0
   -4.5972    1.5149    1.1406 H   0  0  0  0  0  0  0  0  0  0  0  0
   -2.8504    3.2308    0.6334 H   0  0  0  0  0  0  0  0  0  0  0  0
    4.4938   -2.0369    0.7925 H   0  0  0  0  0  0  0  0  0  0  0  0
    5.1313   -0.8634    1.9646 H   0  0  0  0  0  0  0  0  0  0  0  0
    3.4219   -1.3636    2.0522 H   0  0  0  0  0  0  0  0  0  0  0  0
   -0.9798   -2.1311    1.7988 H   0  0  0  0  0  0  0  0  0  0  0  0
   -0.9124   -3.5407    0.7978 H   0  0  0  0  0  0  0  0  0  0  0  0
  1 12  2  0  0  0  0
  2 14  2  0  0  0  0
  3  7  1  0  0  0  0
  3  9  1  0  0  0  0
  3 21  1  0  0  0  0
  4  8  1  0  0  0  0
  4 12  1  0  0  0  0
  4 22  1  0  0  0  0
  5  9  1  0  0  0  0
  5 15  2  0  0  0  0
  6 14  1  0  0  0  0
  6 29  1  0  0  0  0
  6 30  1  0  0  0  0
  7  8  1  0  0  0  0
  7 17  1  0  0  0  0
  7 18  1  0  0  0  0
  8 19  1  0  0  0  0
  8 20  1  0  0  0  0
  9 10  2  0  0  0  0
 10 11  1  0  0  0  0
 10 14  1  0  0  0  0
 11 13  2  0  0  0  0
 11 23  1  0  0  0  0
 12 16  1  0  0  0  0
 13 15  1  0  0  0  0
 13 24  1  0  0  0  0
 15 25  1  0  0  0  0
 16 26  1  0  0  0  0
 16 27  1  0  0  0  0
 16 28  1  0  0  0  0
M  END
>  <PUBCHEM_COMPOUND_CID>
43420783

>  <PUBCHEM_CONFORMER_RMSD>
0.8

>  <PUBCHEM_CONFORMER_DIVERSEORDER>
1
46
54
37
34
45
57
44
14
26
25
38
40
50
20
13
51
47
43
41
32
22
23
15
30
42
49
58
16
48
27
53
24
31
56
12
6
39
28
52
17
36
7
33
29
35
55
10
21
8
3
11
5
18
2
19
4
9

>  <PUBCHEM_MMFF94_PARTIAL_CHARGES>
23
1 -0.57
10 0.09
11 -0.15
12 0.57
13 -0.15
14 0.54
15 0.16
16 0.06
2 -0.57
21 0.4
22 0.37
23 0.15
24 0.15
25 0.15
29 0.37
3 -0.87
30 0.37
4 -0.73
5 -0.62
6 -0.8
7 0.37
8 0.3
9 0.41

>  <PUBCHEM_EFFECTIVE_ROTOR_COUNT>
6

>  <PUBCHEM_PHARMACOPHORE_FEATURES>
8
1 1 acceptor
1 2 acceptor
1 3 cation
1 3 donor
1 4 donor
1 5 acceptor
1 6 donor
6 5 9 10 11 13 15 rings

>  <PUBCHEM_HEAVY_ATOM_COUNT>
16

>  <PUBCHEM_ATOM_DEF_STEREO_COUNT>
0

>  <PUBCHEM_ATOM_UDEF_STEREO_COUNT>
0

>  <PUBCHEM_BOND_DEF_STEREO_COUNT>
0

>  <PUBCHEM_BOND_UDEF_STEREO_COUNT>
0

>  <PUBCHEM_ISOTOPIC_ATOM_COUNT>
0

>  <PUBCHEM_COMPONENT_COUNT>
1

>  <PUBCHEM_CACTVS_TAUTO_COUNT>
14

>  <PUBCHEM_CONFORMER_ID>
02968C6F00000001

>  <PUBCHEM_MMFF94_ENERGY>
46.1201

>  <PUBCHEM_FEATURE_SELFOVERLAP>
40.598

>  <PUBCHEM_SHAPE_FINGERPRINT>
10366900 7 17988917916372624896
11265709 11 17769368658625566311
12251169 10 18408888442822551004
12500047 106 18271525312650226084
12592029 89 18115887208571687785
12633257 1 18271796909413224568
12670545 47 17561080349660754856
13004483 165 17413845945654793863
13083527 12 16912263073563784751
13931106 250 17774431810887012967
15669948 3 18267601249844581893
17977361 122 18187639193779489650
20510252 161 18130516227711716313
20645476 183 17461194133587887103
20645477 70 16009030609628176124
212916 134 18129096723740129937
21339142 149 17846488232345750773
22959321 94 18336269028011617230
232386 152 18335709381288973580
23402539 116 18201431498341094229
23557571 272 17632023043102637686
23559900 14 18129958797160262908
23598291 2 18041294256478562180
23728640 28 18410858776028141571
257057 1 17696185190529369815
2748010 2 18050590451340212645
4072396 5 18262250919707403225
5706482 22 18339646646744906041
58807428 26 18265347101100367649
5924683 9 18129928079153462158
7097593 13 18334011688249380308
7615 1 18188214328681639684
90316 7 18260553285837737413
9862522 239 18043243531770996277

>  <PUBCHEM_SHAPE_MULTIPOLES>
297.61
7.84
2.38
1.2
8.01
1.08
0.13
-0.94
-3.04
-1.85
-0.05
0.7
0.19
-1.08

>  <PUBCHEM_SHAPE_SELFOVERLAP>
606.8

>  <PUBCHEM_SHAPE_VOLUME>
170.9

>  <PUBCHEM_COORDINATE_TYPE>
2
5
10

$$$$
