43533557
 OpenBabel01182520543D

 30 31  0  0  1  0  0  0  0  0999 V2000
    1.4972    2.5463    0.8660 O   0  0  0  0  0  0  0  0  0  0  0  0
   -0.6586    0.1685   -0.2721 N   0  0  0  0  0  0  0  0  0  0  0  0
    0.5543   -1.7930    0.1327 N   0  0  0  0  0  0  0  0  0  0  0  0
    1.8254    2.2934   -1.3894 N   0  0  0  0  0  0  0  0  0  0  0  0
   -3.0619    0.4255   -0.1291 C   0  0  0  0  0  0  0  0  0  0  0  0
   -3.3962    0.8167    1.2805 C   0  0  0  0  0  0  0  0  0  0  0  0
   -4.3209   -0.0807    0.5116 C   0  0  0  0  0  0  0  0  0  0  0  0
   -1.9137   -0.5441   -0.3810 C   0  0  1  0  0  0  0  0  0  0  0  0
   -2.0202   -1.1878   -1.7332 C   0  0  0  0  0  0  0  0  0  0  0  0
    0.5534   -0.4499   -0.0205 C   0  0  0  0  0  0  0  0  0  0  0  0
    1.6883    0.3409    0.0615 C   0  0  0  0  0  0  0  0  0  0  0  0
    2.9021   -0.2872    0.3172 C   0  0  0  0  0  0  0  0  0  0  0  0
    1.6551    1.7875   -0.1051 C   0  0  0  0  0  0  0  0  0  0  0  0
    1.7524   -2.3684    0.3800 C   0  0  0  0  0  0  0  0  0  0  0  0
    2.9434   -1.6675    0.4808 C   0  0  0  0  0  0  0  0  0  0  0  0
   -3.1534    1.1876   -0.8943 H   0  0  0  0  0  0  0  0  0  0  0  0
   -3.7150    1.8365    1.4581 H   0  0  0  0  0  0  0  0  0  0  0  0
   -2.8280    0.3781    2.0914 H   0  0  0  0  0  0  0  0  0  0  0  0
   -4.3749   -1.1211    0.8073 H   0  0  0  0  0  0  0  0  0  0  0  0
   -5.2612    0.3361    0.1718 H   0  0  0  0  0  0  0  0  0  0  0  0
   -1.9600   -1.3265    0.3882 H   0  0  0  0  0  0  0  0  0  0  0  0
   -1.9604   -0.4444   -2.5371 H   0  0  0  0  0  0  0  0  0  0  0  0
   -2.9784   -1.7075   -1.8442 H   0  0  0  0  0  0  0  0  0  0  0  0
   -1.2261   -1.9208   -1.9081 H   0  0  0  0  0  0  0  0  0  0  0  0
   -0.6255    1.0826   -0.7122 H   0  0  0  0  0  0  0  0  0  0  0  0
    3.8217    0.2873    0.3920 H   0  0  0  0  0  0  0  0  0  0  0  0
    1.7306   -3.4466    0.4995 H   0  0  0  0  0  0  0  0  0  0  0  0
    3.8781   -2.1785    0.6810 H   0  0  0  0  0  0  0  0  0  0  0  0
    1.9621    1.6888   -2.1932 H   0  0  0  0  0  0  0  0  0  0  0  0
    1.8170    3.2931   -1.5618 H   0  0  0  0  0  0  0  0  0  0  0  0
  1 13  2  0  0  0  0
  2  8  1  0  0  0  0
  2 10  1  0  0  0  0
  2 25  1  0  0  0  0
  3 10  1  0  0  0  0
  3 14  2  0  0  0  0
  4 13  1  0  0  0  0
  4 29  1  0  0  0  0
  4 30  1  0  0  0  0
  5  6  1  0  0  0  0
  5  7  1  0  0  0  0
  5  8  1  0  0  0  0
  5 16  1  0  0  0  0
  6  7  1  0  0  0  0
  6 17  1  0  0  0  0
  6 18  1  0  0  0  0
  7 19  1  0  0  0  0
  7 20  1  0  0  0  0
  8  9  1  0  0  0  0
  8 21  1  1  0  0  0
  9 22  1  0  0  0  0
  9 23  1  0  0  0  0
  9 24  1  0  0  0  0
 10 11  2  0  0  0  0
 11 12  1  0  0  0  0
 11 13  1  0  0  0  0
 12 15  2  0  0  0  0
 12 26  1  0  0  0  0
 14 15  1  0  0  0  0
 14 27  1  0  0  0  0
 15 28  1  0  0  0  0
M  END
>  <PUBCHEM_COMPOUND_CID>
43533557

>  <PUBCHEM_CONFORMER_RMSD>
0.6

>  <PUBCHEM_CONFORMER_DIVERSEORDER>
2
36
77
83
75
18
43
66
49
63
42
80
10
71
56
54
69
64
44
82
72
47
5
50
58
65
9
29
61
73
67
79
12
8
70
25
60
39
68
3
78
27
31
17
81
34
76
4
22
14
35
74
57
55
59
15
28
16
48
13
20
38
24
26
30
19
11
7
51
62
40
45
41
37
6
53
1
33
32
21
46
52
23

>  <PUBCHEM_MMFF94_PARTIAL_CHARGES>
25
1 -0.57
10 0.41
11 0.09
12 -0.15
13 0.54
14 0.16
15 -0.15
16 0.1
17 0.1
18 0.1
19 0.1
2 -0.87
20 0.1
25 0.4
26 0.15
27 0.15
28 0.15
29 0.37
3 -0.62
30 0.37
4 -0.8
5 -0.19
6 -0.2
7 -0.2
8 0.46

>  <PUBCHEM_EFFECTIVE_ROTOR_COUNT>
4.6

>  <PUBCHEM_PHARMACOPHORE_FEATURES>
6
1 1 acceptor
1 2 cation
1 2 donor
1 3 acceptor
1 4 donor
6 3 10 11 12 14 15 rings

>  <PUBCHEM_HEAVY_ATOM_COUNT>
15

>  <PUBCHEM_ATOM_DEF_STEREO_COUNT>
0

>  <PUBCHEM_ATOM_UDEF_STEREO_COUNT>
1

>  <PUBCHEM_BOND_DEF_STEREO_COUNT>
0

>  <PUBCHEM_BOND_UDEF_STEREO_COUNT>
0

>  <PUBCHEM_ISOTOPIC_ATOM_COUNT>
0

>  <PUBCHEM_COMPONENT_COUNT>
1

>  <PUBCHEM_CACTVS_TAUTO_COUNT>
7

>  <PUBCHEM_CONFORMER_ID>
029844F500000002

>  <PUBCHEM_MMFF94_ENERGY>
52.8294

>  <PUBCHEM_FEATURE_SELFOVERLAP>
30.446

>  <PUBCHEM_SHAPE_FINGERPRINT>
10980938 120 18412266116377291753
12251169 10 18341613694390250755
12696612 119 18410575050408933191
13132413 78 18270396084128158112
13538477 17 17988636441438086423
14144814 61 18271804571418576283
15279307 12 18270399515722586407
15501101 241 18186523176518210775
15775835 57 18272092763576665557
16945 1 18261380153162589470
17041 49 18342737381898124336
17357990 137 17774459195487435961
17844478 74 17677051235505285303
20233049 118 17131550544406605235
20339313 130 18340492145005723626
20559304 39 18342742896768196089
20671657 1 18340773731461595432
20708731 107 18187655703760038132
20871998 22 18052539872408294590
21041028 32 18266177236389735248
21501502 16 18263926712123522451
21524375 3 18125158492101028756
22094290 62 18342457036666578491
2255824 54 18335423499485951886
22854114 111 18411983598045541497
23598291 2 18272929448927887687
2748010 2 17901664092423342390
305870 269 18267857466250727088
31174 14 18040155115155903263
3286 77 18040439867298389883
474 4 18265327489921367897
6049 1 17603578604515038149
6992083 37 18058436617565660991
7097593 13 18340486652001307283
7364860 26 18341894103956323306
7615 1 18058996389475145143
77492 1 18131345315350160991
7832392 63 18201715145816914634
81228 2 17399783909463432762
88987 49 16558459889937369215

>  <PUBCHEM_SHAPE_MULTIPOLES>
287.88
6.18
2.42
1.14
5.61
0.76
0.32
-0.32
-1.5
-2.38
0.08
0.58
0.11
-1.01

>  <PUBCHEM_SHAPE_SELFOVERLAP>
598.145

>  <PUBCHEM_SHAPE_VOLUME>
164.4

>  <PUBCHEM_COORDINATE_TYPE>
2
5
10

$$$$
