43553707
 OpenBabel01182520543D

 27 27  0  0  0  0  0  0  0  0999 V2000
    4.3469    1.2488    0.0215 O   0  0  0  0  0  0  0  0  0  0  0  0
   -2.0349   -2.3839   -1.1135 O   0  0  0  0  0  0  0  0  0  0  0  0
    0.3443   -0.2207   -0.0511 N   0  0  0  0  0  0  0  0  0  0  0  0
   -0.8361    1.8026    0.0004 N   0  0  0  0  0  0  0  0  0  0  0  0
    5.1379   -0.9093    0.0422 N   0  0  0  0  0  0  0  0  0  0  0  0
   -2.0139   -2.4194    1.1793 N   0  0  0  0  0  0  0  0  0  0  0  0
    1.6279    0.4414   -0.0583 C   0  0  0  0  0  0  0  0  0  0  0  0
    2.7539   -0.5839   -0.0236 C   0  0  0  0  0  0  0  0  0  0  0  0
   -0.8671    0.4513   -0.0235 C   0  0  0  0  0  0  0  0  0  0  0  0
   -2.0325   -0.2982   -0.0192 C   0  0  0  0  0  0  0  0  0  0  0  0
   -3.2442    0.3830    0.0112 C   0  0  0  0  0  0  0  0  0  0  0  0
    4.1381    0.0394    0.0111 C   0  0  0  0  0  0  0  0  0  0  0  0
   -3.2534    1.7733    0.0362 C   0  0  0  0  0  0  0  0  0  0  0  0
   -2.0335   -1.7545   -0.0422 C   0  0  0  0  0  0  0  0  0  0  0  0
   -2.0333    2.4301    0.0297 C   0  0  0  0  0  0  0  0  0  0  0  0
    1.7243    1.0648   -0.9556 H   0  0  0  0  0  0  0  0  0  0  0  0
    1.7126    1.1031    0.8125 H   0  0  0  0  0  0  0  0  0  0  0  0
    2.6472   -1.2251    0.8606 H   0  0  0  0  0  0  0  0  0  0  0  0
    2.6943   -1.2342   -0.9054 H   0  0  0  0  0  0  0  0  0  0  0  0
    0.3302   -1.1845   -0.3677 H   0  0  0  0  0  0  0  0  0  0  0  0
   -4.1871   -0.1576    0.0159 H   0  0  0  0  0  0  0  0  0  0  0  0
   -4.1859    2.3253    0.0602 H   0  0  0  0  0  0  0  0  0  0  0  0
   -1.9860    3.5139    0.0484 H   0  0  0  0  0  0  0  0  0  0  0  0
    4.9416   -1.9052    0.0364 H   0  0  0  0  0  0  0  0  0  0  0  0
    6.1148   -0.6370    0.0707 H   0  0  0  0  0  0  0  0  0  0  0  0
   -2.0047   -1.9217    2.0639 H   0  0  0  0  0  0  0  0  0  0  0  0
   -2.0073   -3.4330    1.2216 H   0  0  0  0  0  0  0  0  0  0  0  0
  1 12  2  0  0  0  0
  2 14  2  0  0  0  0
  3  7  1  0  0  0  0
  3  9  1  0  0  0  0
  3 20  1  0  0  0  0
  4  9  1  0  0  0  0
  4 15  2  0  0  0  0
  5 12  1  0  0  0  0
  5 24  1  0  0  0  0
  5 25  1  0  0  0  0
  6 14  1  0  0  0  0
  6 26  1  0  0  0  0
  6 27  1  0  0  0  0
  7  8  1  0  0  0  0
  7 16  1  0  0  0  0
  7 17  1  0  0  0  0
  8 12  1  0  0  0  0
  8 18  1  0  0  0  0
  8 19  1  0  0  0  0
  9 10  2  0  0  0  0
 10 11  1  0  0  0  0
 10 14  1  0  0  0  0
 11 13  2  0  0  0  0
 11 21  1  0  0  0  0
 13 15  1  0  0  0  0
 13 22  1  0  0  0  0
 15 23  1  0  0  0  0
M  END
>  <PUBCHEM_COMPOUND_CID>
43553707

>  <PUBCHEM_CONFORMER_RMSD>
0.6

>  <PUBCHEM_CONFORMER_DIVERSEORDER>
2
84
89
35
99
55
94
93
40
98
91
90
78
87
16
71
42
70
100
37
82
75
57
96
92
80
46
85
48
30
101
79
59
52
41
56
83
81
102
64
43
26
88
53
73
97
86
61
25
32
27
38
74
1
34
72
76
18
69
95
29
22
49
67
45
36
47
12
11
51
58
4
77
15
14
63
39
7
66
28
3
50
68
23
54
65
62
9
8
5
10
19
21
24
31
44
13
60
17
33
20
6

>  <PUBCHEM_MMFF94_PARTIAL_CHARGES>
23
1 -0.57
10 0.09
11 -0.15
12 0.57
13 -0.15
14 0.54
15 0.16
2 -0.57
20 0.4
21 0.15
22 0.15
23 0.15
24 0.37
25 0.37
26 0.37
27 0.37
3 -0.87
4 -0.62
5 -0.8
6 -0.8
7 0.37
8 0.06
9 0.41

>  <PUBCHEM_EFFECTIVE_ROTOR_COUNT>
5

>  <PUBCHEM_PHARMACOPHORE_FEATURES>
8
1 1 acceptor
1 2 acceptor
1 3 cation
1 3 donor
1 4 acceptor
1 5 donor
1 6 donor
6 4 9 10 11 13 15 rings

>  <PUBCHEM_HEAVY_ATOM_COUNT>
15

>  <PUBCHEM_ATOM_DEF_STEREO_COUNT>
0

>  <PUBCHEM_ATOM_UDEF_STEREO_COUNT>
0

>  <PUBCHEM_BOND_DEF_STEREO_COUNT>
0

>  <PUBCHEM_BOND_UDEF_STEREO_COUNT>
0

>  <PUBCHEM_ISOTOPIC_ATOM_COUNT>
0

>  <PUBCHEM_COMPONENT_COUNT>
1

>  <PUBCHEM_CACTVS_TAUTO_COUNT>
14

>  <PUBCHEM_CONFORMER_ID>
029893AB00000002

>  <PUBCHEM_MMFF94_ENERGY>
49.0324

>  <PUBCHEM_FEATURE_SELFOVERLAP>
40.597

>  <PUBCHEM_SHAPE_FINGERPRINT>
10616163 171 18411419505768333222
10680689 15 18342182189220154838
11357001 24 18334584563729837139
12500047 106 18340762642082819008
13024252 1 16081090372761907521
13380535 76 18341331072272111431
14965852 173 18410011061279238868
15042514 8 18409455808292385987
15375358 24 17988362581311661222
15669948 3 18410846659824743818
17834074 16 18341615872038903246
19050596 39 18334855030984806384
20279233 1 17846785087616218110
20510252 161 18200033924140802889
20645476 183 17749104466146454329
20645477 56 18338803316483224132
20645477 70 16916791704788096918
20871998 184 18342746234279577463
22224240 67 18340499855379602921
2306618 200 17989212550770467299
23402539 116 18343012290571531125
23557571 272 18271536359485615596
23559900 14 18343298129461653090
23728640 28 18410573981110243835
3071541 12 17116356165916610189
4214541 1 18410855430654351340
5104073 3 18411135857833109528
559249 180 18192706748952412234
573450 72 18262506031937318450
58051976 100 18408606929386177134
69090 78 18338796719550386605
77779 3 18410857659911137572
8809292 202 18410575097748447584
9709674 26 18342743975063742734

>  <PUBCHEM_SHAPE_MULTIPOLES>
277.03
8.14
2.49
0.72
13.22
0.58
-0.01
-0.72
-0.13
-2.7
-0.06
-0.3
0.34
-0.01

>  <PUBCHEM_SHAPE_SELFOVERLAP>
569.7

>  <PUBCHEM_SHAPE_VOLUME>
157.7

>  <PUBCHEM_COORDINATE_TYPE>
2
5
10

$$$$
