43598820
 OpenBabel01182520543D

 26 27  0  0  1  0  0  0  0  0999 V2000
   -2.2993   -2.0981   -0.9482 O   0  0  0  0  0  0  0  0  0  0  0  0
    0.7382   -0.6963   -0.3624 N   0  0  0  0  0  0  0  0  0  0  0  0
    4.1165    0.8648    0.4431 N   0  0  0  0  0  0  0  0  0  0  0  0
    0.1597    1.6003   -0.2554 N   0  0  0  0  0  0  0  0  0  0  0  0
   -1.9405   -2.1037    1.3167 N   0  0  0  0  0  0  0  0  0  0  0  0
    2.1486   -0.4190   -0.5908 C   0  0  1  0  0  0  0  0  0  0  0  0
    3.0883   -0.1725    0.5529 C   0  0  1  0  0  0  0  0  0  0  0  0
    3.2051   -1.4308   -0.2563 C   0  0  0  0  0  0  0  0  0  0  0  0
   -0.2450    0.3116   -0.1977 C   0  0  0  0  0  0  0  0  0  0  0  0
   -1.5569   -0.0806    0.0142 C   0  0  0  0  0  0  0  0  0  0  0  0
   -2.5152    0.9135    0.1774 C   0  0  0  0  0  0  0  0  0  0  0  0
   -1.9620   -1.4784    0.0745 C   0  0  0  0  0  0  0  0  0  0  0  0
   -0.7997    2.5387   -0.0924 C   0  0  0  0  0  0  0  0  0  0  0  0
   -2.1377    2.2506    0.1244 C   0  0  0  0  0  0  0  0  0  0  0  0
    2.3067    0.1320   -1.5134 H   0  0  0  0  0  0  0  0  0  0  0  0
    2.6864   -0.2808    1.5556 H   0  0  0  0  0  0  0  0  0  0  0  0
    4.0380   -1.5336   -0.9417 H   0  0  0  0  0  0  0  0  0  0  0  0
    2.8991   -2.3592    0.2114 H   0  0  0  0  0  0  0  0  0  0  0  0
    0.3855   -1.6148   -0.6116 H   0  0  0  0  0  0  0  0  0  0  0  0
    4.8835    0.6659    1.0841 H   0  0  0  0  0  0  0  0  0  0  0  0
    3.7357    1.7657    0.7296 H   0  0  0  0  0  0  0  0  0  0  0  0
   -3.5582    0.6592    0.3465 H   0  0  0  0  0  0  0  0  0  0  0  0
   -0.4537    3.5659   -0.1421 H   0  0  0  0  0  0  0  0  0  0  0  0
   -2.8674    3.0424    0.2491 H   0  0  0  0  0  0  0  0  0  0  0  0
   -1.6603   -1.6154    2.1613 H   0  0  0  0  0  0  0  0  0  0  0  0
   -2.2066   -3.0778    1.4152 H   0  0  0  0  0  0  0  0  0  0  0  0
  1 12  2  0  0  0  0
  2  6  1  0  0  0  0
  2  9  1  0  0  0  0
  2 19  1  0  0  0  0
  3  7  1  0  0  0  0
  3 20  1  0  0  0  0
  3 21  1  0  0  0  0
  4  9  1  0  0  0  0
  4 13  2  0  0  0  0
  5 12  1  0  0  0  0
  5 25  1  0  0  0  0
  5 26  1  0  0  0  0
  6  7  1  0  0  0  0
  6  8  1  0  0  0  0
  6 15  1  6  0  0  0
  7  8  1  0  0  0  0
  7 16  1  1  0  0  0
  8 17  1  0  0  0  0
  8 18  1  0  0  0  0
  9 10  2  0  0  0  0
 10 11  1  0  0  0  0
 10 12  1  0  0  0  0
 11 14  2  0  0  0  0
 11 22  1  0  0  0  0
 13 14  1  0  0  0  0
 13 23  1  0  0  0  0
 14 24  1  0  0  0  0
M  END
>  <PUBCHEM_COMPOUND_CID>
43598820

>  <PUBCHEM_CONFORMER_RMSD>
0.6

>  <PUBCHEM_CONFORMER_DIVERSEORDER>
1
71
53
51
46
62
45
80
67
4
54
82
72
83
39
73
36
32
57
41
8
34
42
55
22
74
7
64
40
75
78
29
77
2
61
19
15
48
33
44
70
63
43
27
69
49
12
6
21
25
81
79
11
47
56
20
66
23
13
68
24
28
26
18
76
16
60
14
58
38
37
17
3
10
52
31
65
5
59
30
50
35
9

>  <PUBCHEM_MMFF94_PARTIAL_CHARGES>
26
1 -0.57
10 0.09
11 -0.15
12 0.54
13 0.16
14 -0.15
15 0.1
16 0.1
17 0.1
18 0.1
19 0.4
2 -0.67
20 0.36
21 0.36
22 0.15
23 0.15
24 0.15
25 0.37
26 0.37
3 -0.88
4 -0.62
5 -0.8
6 0.07
7 0.06
8 -0.2
9 0.41

>  <PUBCHEM_EFFECTIVE_ROTOR_COUNT>
3.6

>  <PUBCHEM_PHARMACOPHORE_FEATURES>
8
1 1 acceptor
1 2 cation
1 2 donor
1 3 cation
1 3 donor
1 4 acceptor
1 5 donor
6 4 9 10 11 13 14 rings

>  <PUBCHEM_HEAVY_ATOM_COUNT>
14

>  <PUBCHEM_ATOM_DEF_STEREO_COUNT>
0

>  <PUBCHEM_ATOM_UDEF_STEREO_COUNT>
2

>  <PUBCHEM_BOND_DEF_STEREO_COUNT>
0

>  <PUBCHEM_BOND_UDEF_STEREO_COUNT>
0

>  <PUBCHEM_ISOTOPIC_ATOM_COUNT>
0

>  <PUBCHEM_COMPONENT_COUNT>
1

>  <PUBCHEM_CACTVS_TAUTO_COUNT>
7

>  <PUBCHEM_CONFORMER_ID>
029943E400000001

>  <PUBCHEM_MMFF94_ENERGY>
46.937

>  <PUBCHEM_FEATURE_SELFOVERLAP>
40.596

>  <PUBCHEM_SHAPE_FINGERPRINT>
10608611 8 18270677563615957960
12382932 28 18411985741112636578
12500047 106 18193556666913139572
12553582 1 18122360226329155679
12716758 59 18266180530529177578
13380535 76 18124874555944475247
14965852 173 18336828572694562134
15669948 3 18337112272116023246
16945 1 18337684013714648589
17804303 29 18123195593689880830
20510252 161 18199187287112648409
20524608 308 18270118994096623071
20525323 117 18409163311970488846
20528008 55 18341325583267146140
20645476 183 17461189593533304303
20871998 184 18343027670469674703
21501502 16 18410857706628614428
21524375 3 17832990447066950205
23388829 49 17981883347983115964
23402539 116 18270669879982626493
23532345 11 18334574629449317426
23557571 272 18272097110383924908
23559900 14 18341043005121896950
257057 1 18197207268760956599
2748010 2 18340204214592914493
3071541 236 18188768345108093161
6333449 129 18340767018501577909
6338986 31 18198334263805449031
69090 78 18269270167004224277
75552 356 18408887308671291580
81228 2 18408610236088884769
8809292 202 18267308638423899554
9709674 26 18270400469305773806

>  <PUBCHEM_SHAPE_MULTIPOLES>
262.32
5.49
2.62
0.83
6.01
0.12
0.08
-0.11
0.59
-2.15
0.09
-0.09
-0.33
0.28

>  <PUBCHEM_SHAPE_SELFOVERLAP>
547.005

>  <PUBCHEM_SHAPE_VOLUME>
147.8

>  <PUBCHEM_COORDINATE_TYPE>
2
5
10

$$$$
