43598821
 OpenBabel01182520543D

 26 27  0  0  1  0  0  0  0  0999 V2000
   -3.8683   -1.6439    0.1525 O   0  0  0  0  0  0  0  0  0  0  0  0
    1.8284    1.1690    0.1877 N   0  0  0  0  0  0  0  0  0  0  0  0
    3.9753   -1.9347   -0.3217 N   0  0  0  0  0  0  0  0  0  0  0  0
   -0.4712    1.6891   -0.1562 N   0  0  0  0  0  0  0  0  0  0  0  0
   -4.4642    0.5132   -0.3477 N   0  0  0  0  0  0  0  0  0  0  0  0
    2.9297    0.2657    0.4882 C   0  0  1  0  0  0  0  0  0  0  0  0
    3.5839   -0.5488   -0.5892 C   0  0  1  0  0  0  0  0  0  0  0  0
    4.3329    0.5788    0.0584 C   0  0  0  0  0  0  0  0  0  0  0  0
    0.4724    0.7625    0.1241 C   0  0  0  0  0  0  0  0  0  0  0  0
    0.2001   -0.5761    0.3565 C   0  0  0  0  0  0  0  0  0  0  0  0
   -1.1260   -0.9903    0.2974 C   0  0  0  0  0  0  0  0  0  0  0  0
   -2.1251   -0.0662    0.0119 C   0  0  0  0  0  0  0  0  0  0  0  0
   -1.7487    1.2494   -0.2050 C   0  0  0  0  0  0  0  0  0  0  0  0
   -3.5192   -0.4677   -0.0568 C   0  0  0  0  0  0  0  0  0  0  0  0
    2.8464   -0.1600    1.4845 H   0  0  0  0  0  0  0  0  0  0  0  0
    3.2496   -0.3813   -1.6085 H   0  0  0  0  0  0  0  0  0  0  0  0
    5.1352    0.3425    0.7474 H   0  0  0  0  0  0  0  0  0  0  0  0
    4.5042    1.4720   -0.5307 H   0  0  0  0  0  0  0  0  0  0  0  0
    1.9895    2.1558    0.0175 H   0  0  0  0  0  0  0  0  0  0  0  0
    4.7149   -2.2189   -0.9626 H   0  0  0  0  0  0  0  0  0  0  0  0
    3.1906   -2.5598   -0.5011 H   0  0  0  0  0  0  0  0  0  0  0  0
    0.9582   -1.3168    0.5817 H   0  0  0  0  0  0  0  0  0  0  0  0
   -1.3584   -2.0366    0.4769 H   0  0  0  0  0  0  0  0  0  0  0  0
   -2.4422    2.0488   -0.4337 H   0  0  0  0  0  0  0  0  0  0  0  0
   -4.2639    1.4893   -0.5252 H   0  0  0  0  0  0  0  0  0  0  0  0
   -5.4465    0.2613   -0.3952 H   0  0  0  0  0  0  0  0  0  0  0  0
  1 14  2  0  0  0  0
  2  6  1  0  0  0  0
  2  9  1  0  0  0  0
  2 19  1  0  0  0  0
  3  7  1  0  0  0  0
  3 20  1  0  0  0  0
  3 21  1  0  0  0  0
  4  9  2  0  0  0  0
  4 13  1  0  0  0  0
  5 14  1  0  0  0  0
  5 25  1  0  0  0  0
  5 26  1  0  0  0  0
  6  7  1  0  0  0  0
  6  8  1  0  0  0  0
  6 15  1  1  0  0  0
  7  8  1  0  0  0  0
  7 16  1  6  0  0  0
  8 17  1  0  0  0  0
  8 18  1  0  0  0  0
  9 10  1  0  0  0  0
 10 11  2  0  0  0  0
 10 22  1  0  0  0  0
 11 12  1  0  0  0  0
 11 23  1  0  0  0  0
 12 13  2  0  0  0  0
 12 14  1  0  0  0  0
 13 24  1  0  0  0  0
M  END
>  <PUBCHEM_COMPOUND_CID>
43598821

>  <PUBCHEM_CONFORMER_RMSD>
0.6

>  <PUBCHEM_CONFORMER_DIVERSEORDER>
1
35
7
44
10
12
41
46
36
23
11
20
48
28
42
3
45
37
2
26
40
39
31
24
29
47
4
9
13
19
30
25
33
5
8
27
21
14
32
15
22
34
43
18
38
6
16
17

>  <PUBCHEM_MMFF94_PARTIAL_CHARGES>
26
1 -0.57
10 -0.15
11 -0.15
12 0.09
13 0.16
14 0.54
15 0.1
16 0.1
17 0.1
18 0.1
19 0.4
2 -0.67
20 0.36
21 0.36
22 0.15
23 0.15
24 0.15
25 0.37
26 0.37
3 -0.88
4 -0.62
5 -0.8
6 0.07
7 0.06
8 -0.2
9 0.41

>  <PUBCHEM_EFFECTIVE_ROTOR_COUNT>
3.6

>  <PUBCHEM_PHARMACOPHORE_FEATURES>
7
1 1 acceptor
1 2 donor
1 3 cation
1 3 donor
1 5 donor
3 2 4 9 cation
6 4 9 10 11 12 13 rings

>  <PUBCHEM_HEAVY_ATOM_COUNT>
14

>  <PUBCHEM_ATOM_DEF_STEREO_COUNT>
0

>  <PUBCHEM_ATOM_UDEF_STEREO_COUNT>
2

>  <PUBCHEM_BOND_DEF_STEREO_COUNT>
0

>  <PUBCHEM_BOND_UDEF_STEREO_COUNT>
0

>  <PUBCHEM_ISOTOPIC_ATOM_COUNT>
0

>  <PUBCHEM_COMPONENT_COUNT>
1

>  <PUBCHEM_CACTVS_TAUTO_COUNT>
7

>  <PUBCHEM_CONFORMER_ID>
029943E500000001

>  <PUBCHEM_MMFF94_ENERGY>
40.9713

>  <PUBCHEM_FEATURE_SELFOVERLAP>
35.522

>  <PUBCHEM_SHAPE_FINGERPRINT>
10618630 7 18410576180196289580
11401426 45 18409161134522341989
11543360 7 14851889209200356731
12032990 46 18409451418424131883
12932764 1 17060046056594873552
13690532 89 18409448093845125138
14252887 29 18341052999257477122
14325111 11 18410855430469819528
14993402 34 16660365891563771046
15196674 1 18410856551208344386
17834074 16 18413108363864856958
18186145 218 17531239595397904125
200 152 17775279465611081381
20201158 50 18412829092649208002
20279233 1 18410015455378812594
20281407 28 18413111679647882552
20281475 54 18412832399257035256
20374829 77 18408884006131799074
20645477 70 18272089366552959894
22485316 2 18272086119161655166
23402539 116 18410283735577654055
23557571 272 17967809423676676364
23559900 14 18410853278991839168
2871803 45 18335420136753652678
4990 188 18334011700654312314
5104073 3 18341612586135474674
69090 78 18201995551436595494
7364860 26 18194403522848313916
9709674 26 18408610287887273514

>  <PUBCHEM_SHAPE_MULTIPOLES>
262.32
8.6
1.57
0.67
1.19
0.22
0
2.2
0.87
0.14
0.07
0.15
0.02
0.47

>  <PUBCHEM_SHAPE_SELFOVERLAP>
547.454

>  <PUBCHEM_SHAPE_VOLUME>
147.5

>  <PUBCHEM_COORDINATE_TYPE>
2
5
10

$$$$
