43599314
 OpenBabel01182520543D

 29 30  0  0  0  0  0  0  0  0999 V2000
   -2.2239    2.2731    1.0458 O   0  0  0  0  0  0  0  0  0  0  0  0
    0.5296    0.4431    0.2898 N   0  0  0  0  0  0  0  0  0  0  0  0
    4.5994   -0.5053    0.3949 N   0  0  0  0  0  0  0  0  0  0  0  0
   -0.3751   -1.7301    0.1735 N   0  0  0  0  0  0  0  0  0  0  0  0
   -1.9705    2.2796   -1.2332 N   0  0  0  0  0  0  0  0  0  0  0  0
    1.8981    0.0475    0.4468 C   0  0  2  0  0  0  0  0  0  0  0  0
    3.7764    0.2601   -0.5293 C   0  0  2  0  0  0  0  0  0  0  0  0
    2.8800    1.2252    0.2743 C   0  0  0  0  0  0  0  0  0  0  0  0
    2.4969   -0.5411   -0.8477 C   0  0  0  0  0  0  0  0  0  0  0  0
   -0.5861   -0.3948    0.1571 C   0  0  0  0  0  0  0  0  0  0  0  0
   -1.8333    0.1917    0.0149 C   0  0  0  0  0  0  0  0  0  0  0  0
   -2.9351   -0.6460   -0.1188 C   0  0  0  0  0  0  0  0  0  0  0  0
   -2.0287    1.6348   -0.0022 C   0  0  0  0  0  0  0  0  0  0  0  0
   -1.4696   -2.5126    0.0408 C   0  0  0  0  0  0  0  0  0  0  0  0
   -2.7582   -2.0252   -0.1066 C   0  0  0  0  0  0  0  0  0  0  0  0
    2.0573   -0.5458    1.3548 H   0  0  0  0  0  0  0  0  0  0  0  0
    4.3132    0.6843   -1.3805 H   0  0  0  0  0  0  0  0  0  0  0  0
    3.2967    1.6389    1.1980 H   0  0  0  0  0  0  0  0  0  0  0  0
    2.4987    2.0587   -0.3301 H   0  0  0  0  0  0  0  0  0  0  0  0
    2.0069   -0.2136   -1.7741 H   0  0  0  0  0  0  0  0  0  0  0  0
    2.5893   -1.6312   -0.8797 H   0  0  0  0  0  0  0  0  0  0  0  0
    0.3212    1.3756    0.6358 H   0  0  0  0  0  0  0  0  0  0  0  0
    5.3456    0.0395    0.8253 H   0  0  0  0  0  0  0  0  0  0  0  0
    5.0525   -1.3120   -0.0328 H   0  0  0  0  0  0  0  0  0  0  0  0
   -3.9353   -0.2367   -0.2334 H   0  0  0  0  0  0  0  0  0  0  0  0
   -1.2780   -3.5804    0.0565 H   0  0  0  0  0  0  0  0  0  0  0  0
   -3.6023   -2.6974   -0.2094 H   0  0  0  0  0  0  0  0  0  0  0  0
   -1.8039    1.7757   -2.0985 H   0  0  0  0  0  0  0  0  0  0  0  0
   -2.0932    3.2844   -1.3024 H   0  0  0  0  0  0  0  0  0  0  0  0
  1 13  2  0  0  0  0
  2  6  1  0  0  0  0
  2 10  1  0  0  0  0
  2 22  1  0  0  0  0
  3  7  1  0  0  0  0
  3 23  1  0  0  0  0
  3 24  1  0  0  0  0
  4 10  1  0  0  0  0
  4 14  2  0  0  0  0
  5 13  1  0  0  0  0
  5 28  1  0  0  0  0
  5 29  1  0  0  0  0
  6  8  1  0  0  0  0
  6  9  1  0  0  0  0
  6 16  1  1  0  0  0
  7  8  1  0  0  0  0
  7  9  1  0  0  0  0
  7 17  1  6  0  0  0
  8 18  1  0  0  0  0
  8 19  1  0  0  0  0
  9 20  1  0  0  0  0
  9 21  1  0  0  0  0
 10 11  2  0  0  0  0
 11 12  1  0  0  0  0
 11 13  1  0  0  0  0
 12 15  2  0  0  0  0
 12 25  1  0  0  0  0
 14 15  1  0  0  0  0
 14 26  1  0  0  0  0
 15 27  1  0  0  0  0
M  END
>  <PUBCHEM_COMPOUND_CID>
43599314

>  <PUBCHEM_CONFORMER_RMSD>
0.6

>  <PUBCHEM_CONFORMER_DIVERSEORDER>
5
32
30
40
33
48
50
11
31
38
15
49
41
37
29
17
34
43
39
51
44
16
18
19
13
6
2
25
12
20
14
47
36
4
28
3
35
42
24
21
46
7
23
22
45
8
1
27
26
10
9

>  <PUBCHEM_MMFF94_PARTIAL_CHARGES>
21
1 -0.57
10 0.41
11 0.09
12 -0.15
13 0.54
14 0.16
15 -0.15
2 -0.75
22 0.4
23 0.36
24 0.36
25 0.15
26 0.15
27 0.15
28 0.37
29 0.37
3 -0.93
4 -0.62
5 -0.8
6 0.25
7 0.21

>  <PUBCHEM_EFFECTIVE_ROTOR_COUNT>
3.8

>  <PUBCHEM_PHARMACOPHORE_FEATURES>
9
1 1 acceptor
1 2 cation
1 2 donor
1 3 cation
1 3 donor
1 4 acceptor
1 5 donor
4 6 7 8 9 rings
6 4 10 11 12 14 15 rings

>  <PUBCHEM_HEAVY_ATOM_COUNT>
15

>  <PUBCHEM_ATOM_DEF_STEREO_COUNT>
0

>  <PUBCHEM_ATOM_UDEF_STEREO_COUNT>
0

>  <PUBCHEM_BOND_DEF_STEREO_COUNT>
0

>  <PUBCHEM_BOND_UDEF_STEREO_COUNT>
0

>  <PUBCHEM_ISOTOPIC_ATOM_COUNT>
0

>  <PUBCHEM_COMPONENT_COUNT>
1

>  <PUBCHEM_CACTVS_TAUTO_COUNT>
7

>  <PUBCHEM_CONFORMER_ID>
029945D200000005

>  <PUBCHEM_MMFF94_ENERGY>
55.6004

>  <PUBCHEM_FEATURE_SELFOVERLAP>
45.671

>  <PUBCHEM_SHAPE_FINGERPRINT>
10608611 8 18343300405325139896
12032990 46 18193560201645493435
12500047 106 18338229363224218292
13024252 1 16008748030913474763
14144814 61 18334856117347788218
14614273 12 18261951852127695877
15442244 35 18336825291360588642
15775835 57 18187647938274764888
16752209 62 18263905735687670227
16945 1 18411416241366029635
17134986 127 17974847268282128917
1741750 31 18270118994001586704
18186145 218 18198067971643384212
19049666 15 18059300863933296646
1986462 14 18412267224948307220
20510252 161 18341896328649162745
20645477 56 18411705352736628768
21029758 27 18044101383037706035
21501502 16 18338234860524251514
21524375 3 18117559535423855153
2306618 200 18201728352909961259
23402539 116 18341604954110756775
23557571 272 18269002049222745678
23559900 14 18341607166256206336
2748010 2 18193848033046792391
4214541 1 18410573981595072576
559249 180 18189889826016380026
573450 72 18261943090663574018
58051976 100 18408326566558076150
6333449 129 18411418392938819173
6992083 37 18114469972163972620
81228 2 18336552727997645891
8809292 202 18339927112072239698
9709674 26 18343589546861009942

>  <PUBCHEM_SHAPE_MULTIPOLES>
282.9
6.52
2.45
0.84
7.02
0.31
-0.09
-0.47
-0.17
-2.71
-0.04
0
0.29
0.08

>  <PUBCHEM_SHAPE_SELFOVERLAP>
596.443

>  <PUBCHEM_SHAPE_VOLUME>
158.6

>  <PUBCHEM_COORDINATE_TYPE>
2
5
10

$$$$
