43599607
 OpenBabel01182520543D

 35 36  0  0  0  0  0  0  0  0999 V2000
    2.0058   -1.8797    2.0102 O   0  0  0  0  0  0  0  0  0  0  0  0
   -3.1791    0.7695   -0.0820 N   0  0  0  0  0  0  0  0  0  0  0  0
    0.2322    0.7478    0.8184 N   0  0  0  0  0  0  0  0  0  0  0  0
    1.7628    1.7265   -0.6619 N   0  0  0  0  0  0  0  0  0  0  0  0
    0.7629   -2.6107    0.2272 N   0  0  0  0  0  0  0  0  0  0  0  0
   -3.9953   -0.3632   -0.5660 C   0  0  0  0  0  0  0  0  0  0  0  0
   -3.3273   -1.6225   -1.0345 C   0  0  0  0  0  0  0  0  0  0  0  0
   -3.9985   -0.7163   -2.0245 C   0  0  0  0  0  0  0  0  0  0  0  0
   -2.7114    0.5611    1.2830 C   0  0  0  0  0  0  0  0  0  0  0  0
   -1.8110    1.7047    1.7607 C   0  0  0  0  0  0  0  0  0  0  0  0
   -0.5729    1.9427    0.8970 C   0  0  0  0  0  0  0  0  0  0  0  0
    1.3822    0.6432    0.0517 C   0  0  0  0  0  0  0  0  0  0  0  0
    2.0685   -0.5604    0.0601 C   0  0  0  0  0  0  0  0  0  0  0  0
    3.2198   -0.6586   -0.7136 C   0  0  0  0  0  0  0  0  0  0  0  0
    1.6314   -1.7119    0.8374 C   0  0  0  0  0  0  0  0  0  0  0  0
    2.8865    1.5935   -1.4018 C   0  0  0  0  0  0  0  0  0  0  0  0
    3.6434    0.4344   -1.4614 C   0  0  0  0  0  0  0  0  0  0  0  0
   -4.9408   -0.4789   -0.0441 H   0  0  0  0  0  0  0  0  0  0  0  0
   -3.8095   -2.5647   -0.8045 H   0  0  0  0  0  0  0  0  0  0  0  0
   -2.2449   -1.6661   -1.0489 H   0  0  0  0  0  0  0  0  0  0  0  0
   -3.3658   -0.1510   -2.6979 H   0  0  0  0  0  0  0  0  0  0  0  0
   -4.9318   -1.0499   -2.4614 H   0  0  0  0  0  0  0  0  0  0  0  0
   -3.7145    1.6354   -0.1353 H   0  0  0  0  0  0  0  0  0  0  0  0
   -3.5708    0.4882    1.9609 H   0  0  0  0  0  0  0  0  0  0  0  0
   -2.1667   -0.3875    1.3571 H   0  0  0  0  0  0  0  0  0  0  0  0
   -2.3936    2.6336    1.8029 H   0  0  0  0  0  0  0  0  0  0  0  0
   -1.4971    1.4873    2.7898 H   0  0  0  0  0  0  0  0  0  0  0  0
    0.0143    2.7570    1.3380 H   0  0  0  0  0  0  0  0  0  0  0  0
   -0.8762    2.2642   -0.1062 H   0  0  0  0  0  0  0  0  0  0  0  0
    0.1436    0.0959    1.5913 H   0  0  0  0  0  0  0  0  0  0  0  0
    3.7945   -1.5806   -0.7421 H   0  0  0  0  0  0  0  0  0  0  0  0
    3.1742    2.4742   -1.9665 H   0  0  0  0  0  0  0  0  0  0  0  0
    4.5376    0.3808   -2.0716 H   0  0  0  0  0  0  0  0  0  0  0  0
    0.4391   -2.4847   -0.7266 H   0  0  0  0  0  0  0  0  0  0  0  0
    0.4214   -3.4261    0.7248 H   0  0  0  0  0  0  0  0  0  0  0  0
  1 15  2  0  0  0  0
  2  6  1  0  0  0  0
  2  9  1  0  0  0  0
  2 23  1  0  0  0  0
  3 11  1  0  0  0  0
  3 12  1  0  0  0  0
  3 30  1  0  0  0  0
  4 12  1  0  0  0  0
  4 16  2  0  0  0  0
  5 15  1  0  0  0  0
  5 34  1  0  0  0  0
  5 35  1  0  0  0  0
  6  7  1  0  0  0  0
  6  8  1  0  0  0  0
  6 18  1  0  0  0  0
  7  8  1  0  0  0  0
  7 19  1  0  0  0  0
  7 20  1  0  0  0  0
  8 21  1  0  0  0  0
  8 22  1  0  0  0  0
  9 10  1  0  0  0  0
  9 24  1  0  0  0  0
  9 25  1  0  0  0  0
 10 11  1  0  0  0  0
 10 26  1  0  0  0  0
 10 27  1  0  0  0  0
 11 28  1  0  0  0  0
 11 29  1  0  0  0  0
 12 13  2  0  0  0  0
 13 14  1  0  0  0  0
 13 15  1  0  0  0  0
 14 17  2  0  0  0  0
 14 31  1  0  0  0  0
 16 17  1  0  0  0  0
 16 32  1  0  0  0  0
 17 33  1  0  0  0  0
M  END
>  <PUBCHEM_COMPOUND_CID>
43599607

>  <PUBCHEM_CONFORMER_RMSD>
0.8

>  <PUBCHEM_CONFORMER_DIVERSEORDER>
2
149
148
72
95
128
70
143
12
96
142
106
138
63
85
124
16
49
28
100
39
98
144
24
116
108
73
76
153
94
112
20
137
50
111
45
133
120
89
141
48
42
43
114
97
6
131
115
101
52
145
80
14
107
21
71
66
136
123
75
11
56
105
154
22
151
146
29
109
127
18
68
26
140
132
25
118
150
34
58
135
15
121
88
152
134
78
91
60
44
55
23
53
110
92
57
126
90
30
19
61
69
74
93
51
13
31
10
67
130
113
139
32
7
117
81
47
122
82
38
104
46
27
36
119
40
64
41
102
84
125
17
8
129
3
103
147
5
59
33
77
83
37
4
9
86
87
65
79
1
54
99
35
62

>  <PUBCHEM_MMFF94_PARTIAL_CHARGES>
28
1 -0.57
11 0.37
12 0.41
13 0.09
14 -0.15
15 0.54
16 0.16
17 -0.15
18 0.1
19 0.1
2 -0.79
20 0.1
21 0.1
22 0.1
23 0.36
3 -0.87
30 0.4
31 0.15
32 0.15
33 0.15
34 0.37
35 0.37
4 -0.62
5 -0.8
6 0.06
7 -0.2
8 -0.2
9 0.27

>  <PUBCHEM_EFFECTIVE_ROTOR_COUNT>
7.6

>  <PUBCHEM_PHARMACOPHORE_FEATURES>
8
1 1 acceptor
1 2 cation
1 2 donor
1 3 cation
1 3 donor
1 4 acceptor
1 5 donor
6 4 12 13 14 16 17 rings

>  <PUBCHEM_HEAVY_ATOM_COUNT>
17

>  <PUBCHEM_ATOM_DEF_STEREO_COUNT>
0

>  <PUBCHEM_ATOM_UDEF_STEREO_COUNT>
0

>  <PUBCHEM_BOND_DEF_STEREO_COUNT>
0

>  <PUBCHEM_BOND_UDEF_STEREO_COUNT>
0

>  <PUBCHEM_ISOTOPIC_ATOM_COUNT>
0

>  <PUBCHEM_COMPONENT_COUNT>
1

>  <PUBCHEM_CACTVS_TAUTO_COUNT>
7

>  <PUBCHEM_CONFORMER_ID>
029946F700000002

>  <PUBCHEM_MMFF94_ENERGY>
47.3839

>  <PUBCHEM_FEATURE_SELFOVERLAP>
40.596

>  <PUBCHEM_SHAPE_FINGERPRINT>
11578080 2 18196908033847382280
11725454 13 16299507373661006484
12553582 1 18131348618549101409
12969540 114 17459776859153025876
13583140 156 16371857442377137960
14787075 74 18059289972197317728
15003188 105 17335297977797276191
15279307 12 17984441645437471425
16752209 62 17846774067025535501
18915474 69 18202289112350959572
192875 21 18042672932084831219
20291156 8 17846498192575402533
20645477 70 17676214532889304992
21634736 98 18130513049229954972
21639500 275 17968108520476667832
23402539 116 18341065059726429108
23503958 8 16702032937033953927
235170 7 17313096493238180303
23598291 2 18049455750839846945
238 59 17894911845097625333
3286 77 13614242620170490479
4409770 3 15677999896393119009
603831 33 18411990134722223321
633830 44 18046099057941682692

>  <PUBCHEM_SHAPE_MULTIPOLES>
324.06
7.46
2.38
1.85
4.6
0.21
0.1
1.67
-4.04
0.28
0.71
-0.16
0.23
-2.35

>  <PUBCHEM_SHAPE_SELFOVERLAP>
659.678

>  <PUBCHEM_SHAPE_VOLUME>
187.6

>  <PUBCHEM_COORDINATE_TYPE>
2
5
10

$$$$
