44122614
 OpenBabel01182520543D

 17 17  0  0  0  0  0  0  0  0999 V2000
    2.6056   -2.1375   -0.0023 Br  0  0  0  0  0  0  0  0  0  0  0  0
   -2.7900   -1.3946    0.0101 O   0  0  0  0  0  0  0  0  0  0  0  0
    0.8726    1.6599    0.0019 N   0  0  0  0  0  0  0  0  0  0  0  0
    3.1236    0.9458    0.0031 N   0  0  0  0  0  0  0  0  0  0  0  0
   -3.2158    0.8586   -0.0033 N   0  0  0  0  0  0  0  0  0  0  0  0
   -0.9213    0.0390   -0.0024 C   0  0  0  0  0  0  0  0  0  0  0  0
    0.0054   -0.9976   -0.0031 C   0  0  0  0  0  0  0  0  0  0  0  0
    1.3652   -0.7071   -0.0013 C   0  0  0  0  0  0  0  0  0  0  0  0
    1.7435    0.6258    0.0012 C   0  0  0  0  0  0  0  0  0  0  0  0
   -0.4406    1.3386    0.0002 C   0  0  0  0  0  0  0  0  0  0  0  0
   -2.3484   -0.2311   -0.0041 C   0  0  0  0  0  0  0  0  0  0  0  0
   -0.3283   -2.0326   -0.0052 H   0  0  0  0  0  0  0  0  0  0  0  0
   -1.0711    2.2187    0.0014 H   0  0  0  0  0  0  0  0  0  0  0  0
    3.7692    0.2821    0.4130 H   0  0  0  0  0  0  0  0  0  0  0  0
    3.3698    1.9278    0.0140 H   0  0  0  0  0  0  0  0  0  0  0  0
   -2.9384    1.8320   -0.0097 H   0  0  0  0  0  0  0  0  0  0  0  0
   -4.2182    0.6984    0.0024 H   0  0  0  0  0  0  0  0  0  0  0  0
  1  8  1  0  0  0  0
  2 11  2  0  0  0  0
  3  9  1  0  0  0  0
  3 10  2  0  0  0  0
  4  9  1  0  0  0  0
  4 14  1  0  0  0  0
  4 15  1  0  0  0  0
  5 11  1  0  0  0  0
  5 16  1  0  0  0  0
  5 17  1  0  0  0  0
  6  7  2  0  0  0  0
  6 10  1  0  0  0  0
  6 11  1  0  0  0  0
  7  8  1  0  0  0  0
  7 12  1  0  0  0  0
  8  9  2  0  0  0  0
 10 13  1  0  0  0  0
M  END
>  <PUBCHEM_COMPOUND_CID>
44122614

>  <PUBCHEM_CONFORMER_RMSD>
0.4

>  <PUBCHEM_CONFORMER_DIVERSEORDER>
1
2

>  <PUBCHEM_MMFF94_PARTIAL_CHARGES>
17
1 -0.11
10 0.16
11 0.54
12 0.15
13 0.15
14 0.4
15 0.4
16 0.37
17 0.37
2 -0.57
3 -0.62
4 -0.9
5 -0.8
6 0.09
7 -0.15
8 0.11
9 0.41

>  <PUBCHEM_EFFECTIVE_ROTOR_COUNT>
1

>  <PUBCHEM_PHARMACOPHORE_FEATURES>
7
1 1 hydrophobe
1 2 acceptor
1 3 acceptor
1 4 cation
1 4 donor
1 5 donor
6 3 6 7 8 9 10 rings

>  <PUBCHEM_HEAVY_ATOM_COUNT>
11

>  <PUBCHEM_ATOM_DEF_STEREO_COUNT>
0

>  <PUBCHEM_ATOM_UDEF_STEREO_COUNT>
0

>  <PUBCHEM_BOND_DEF_STEREO_COUNT>
0

>  <PUBCHEM_BOND_UDEF_STEREO_COUNT>
0

>  <PUBCHEM_ISOTOPIC_ATOM_COUNT>
0

>  <PUBCHEM_COMPONENT_COUNT>
1

>  <PUBCHEM_CACTVS_TAUTO_COUNT>
7

>  <PUBCHEM_CONFORMER_ID>
02A141F600000001

>  <PUBCHEM_MMFF94_ENERGY>
37.5256

>  <PUBCHEM_FEATURE_SELFOVERLAP>
35.52

>  <PUBCHEM_SHAPE_FINGERPRINT>
10130415 120 18266457611780783299
12932764 1 17561077051088766243
14128692 85 18338522911264489598
14325111 11 18410574006642157349
161256 15 18337671906528602900
16945 1 18338797952000168260
17990270 104 18408885156787376155
19021347 11 18337952406389761030
20201158 50 18335419105597400875
20645477 70 18411131416642194271
20711985 365 18122343480166837117
20871998 22 18126851486868756694
21040471 1 18122625217241963396
21501502 16 18339925913501881961
21501925 9 18339347609125130962
23402655 69 18341317913326020029
23463225 33 18338516344169719222
23552423 10 18333735688907670094
2748010 2 18410008793256788990
29004967 10 18408325513979702937
528886 8 18411414033641913857
53812653 166 18271520991760347128
63268167 104 18412267224600303609
7364860 26 18343299241536578730

>  <PUBCHEM_SHAPE_MULTIPOLES>
211.5
4.66
1.95
0.6
1.16
0.19
0
1.12
0
-1.02
0
-0.06
0.04
0.01

>  <PUBCHEM_SHAPE_SELFOVERLAP>
429.523

>  <PUBCHEM_SHAPE_VOLUME>
126.3

>  <PUBCHEM_COORDINATE_TYPE>
2
5
10

$$$$
