44180375
 OpenBabel01182520543D

 27 28  0  0  0  0  0  0  0  0999 V2000
   -0.6785    2.6026    0.0244 O   0  0  0  0  0  0  0  0  0  0  0  0
    1.0933    1.1889    0.3033 N   0  0  0  0  0  0  0  0  0  0  0  0
   -3.3450   -0.6663   -0.2424 N   0  0  0  0  0  0  0  0  0  0  0  0
    5.2868   -0.2731   -0.4981 N   0  0  0  0  0  0  0  0  0  0  0  0
   -3.1063    1.6640   -0.2764 N   0  0  0  0  0  0  0  0  0  0  0  0
    1.6333   -0.0759    0.4120 C   0  0  0  0  0  0  0  0  0  0  0  0
    3.1147   -0.1464    0.6144 C   0  0  0  0  0  0  0  0  0  0  0  0
   -0.5864   -1.0136    0.1387 C   0  0  0  0  0  0  0  0  0  0  0  0
   -1.1368    0.2666    0.0284 C   0  0  0  0  0  0  0  0  0  0  0  0
    0.8549   -1.1672    0.3376 C   0  0  0  0  0  0  0  0  0  0  0  0
   -0.2555    1.4546    0.1138 C   0  0  0  0  0  0  0  0  0  0  0  0
    3.8465   -0.2119   -0.7203 C   0  0  0  0  0  0  0  0  0  0  0  0
   -2.5063    0.3903   -0.1594 C   0  0  0  0  0  0  0  0  0  0  0  0
   -1.4295   -2.1199    0.0565 C   0  0  0  0  0  0  0  0  0  0  0  0
   -2.7851   -1.8927   -0.1323 C   0  0  0  0  0  0  0  0  0  0  0  0
    3.3614   -1.0332    1.2144 H   0  0  0  0  0  0  0  0  0  0  0  0
    3.4586    0.7147    1.2025 H   0  0  0  0  0  0  0  0  0  0  0  0
    1.2666   -2.1673    0.4201 H   0  0  0  0  0  0  0  0  0  0  0  0
    1.7292    1.9792    0.3643 H   0  0  0  0  0  0  0  0  0  0  0  0
    3.5334   -1.0932   -1.2919 H   0  0  0  0  0  0  0  0  0  0  0  0
    3.6201    0.6727   -1.3262 H   0  0  0  0  0  0  0  0  0  0  0  0
   -1.0518   -3.1341    0.1360 H   0  0  0  0  0  0  0  0  0  0  0  0
   -3.4803   -2.7231   -0.2023 H   0  0  0  0  0  0  0  0  0  0  0  0
    5.7632   -0.3654   -1.3943 H   0  0  0  0  0  0  0  0  0  0  0  0
    5.5168   -1.1107    0.0350 H   0  0  0  0  0  0  0  0  0  0  0  0
   -2.6924    2.4417    0.2220 H   0  0  0  0  0  0  0  0  0  0  0  0
   -4.1090    1.6813   -0.4188 H   0  0  0  0  0  0  0  0  0  0  0  0
  1 11  2  0  0  0  0
  2  6  1  0  0  0  0
  2 11  1  0  0  0  0
  2 19  1  0  0  0  0
  3 13  2  0  0  0  0
  3 15  1  0  0  0  0
  4 12  1  0  0  0  0
  4 24  1  0  0  0  0
  4 25  1  0  0  0  0
  5 13  1  0  0  0  0
  5 26  1  0  0  0  0
  5 27  1  0  0  0  0
  6  7  1  0  0  0  0
  6 10  2  0  0  0  0
  7 12  1  0  0  0  0
  7 16  1  0  0  0  0
  7 17  1  0  0  0  0
  8  9  2  0  0  0  0
  8 10  1  0  0  0  0
  8 14  1  0  0  0  0
  9 11  1  0  0  0  0
  9 13  1  0  0  0  0
 10 18  1  0  0  0  0
 12 20  1  0  0  0  0
 12 21  1  0  0  0  0
 14 15  2  0  0  0  0
 14 22  1  0  0  0  0
 15 23  1  0  0  0  0
M  END
>  <PUBCHEM_COMPOUND_CID>
44180375

>  <PUBCHEM_CONFORMER_RMSD>
0.6

>  <PUBCHEM_CONFORMER_DIVERSEORDER>
1
4
5
6
3
2

>  <PUBCHEM_MMFF94_PARTIAL_CHARGES>
23
1 -0.57
10 -0.18
11 0.54
12 0.27
13 0.41
14 -0.15
15 0.16
18 0.15
19 0.37
2 -0.54
22 0.15
23 0.15
24 0.36
25 0.36
26 0.4
27 0.4
3 -0.62
4 -0.99
5 -0.9
6 -0.03
7 0.14
8 0.03
9 0.09

>  <PUBCHEM_EFFECTIVE_ROTOR_COUNT>
2

>  <PUBCHEM_PHARMACOPHORE_FEATURES>
8
1 1 acceptor
1 2 donor
1 4 cation
1 4 donor
1 5 donor
3 3 5 13 cation
6 2 6 8 9 10 11 rings
6 3 8 9 13 14 15 rings

>  <PUBCHEM_HEAVY_ATOM_COUNT>
15

>  <PUBCHEM_ATOM_DEF_STEREO_COUNT>
0

>  <PUBCHEM_ATOM_UDEF_STEREO_COUNT>
0

>  <PUBCHEM_BOND_DEF_STEREO_COUNT>
0

>  <PUBCHEM_BOND_UDEF_STEREO_COUNT>
0

>  <PUBCHEM_ISOTOPIC_ATOM_COUNT>
0

>  <PUBCHEM_COMPONENT_COUNT>
1

>  <PUBCHEM_CACTVS_TAUTO_COUNT>
38

>  <PUBCHEM_CONFORMER_ID>
02A2239700000001

>  <PUBCHEM_MMFF94_ENERGY>
40.0381

>  <PUBCHEM_FEATURE_SELFOVERLAP>
40.622

>  <PUBCHEM_SHAPE_FINGERPRINT>
10465860 71 18338813298414124556
10967382 1 18194675973944955929
11132069 177 18412819188185630768
11206711 2 18335406998395771623
11680986 33 18050563246832632801
12032990 46 18340207504479899314
14790565 3 18124044429014167537
14911166 2 18410848863332721493
14993402 34 18408878542801296031
15219456 202 18059849627836540984
15536298 74 18269554008729740456
15669948 3 18408876326593208402
16945 1 18338506465528550361
17804303 29 18342176708430363651
17870717 6 18128275427783750774
193761 8 17833264599145351329
20645476 183 17894352180836812266
20871999 31 18408038528549428119
21029758 27 18187372072894354541
21267235 1 18337680800957954171
2334 1 18193831780610930521
23402539 116 18409726253819279062
23557571 272 18343030999348793574
23559900 14 18342736292015583138
2748010 2 18195232532707634849
3312278 4 18408603647471902802
4175511 318 18113613452362971852
528886 8 18339067203937785169
53812653 8 18263924332690255664
7364860 26 17909829078197315904
77492 1 17603578621658068194
8809292 202 18262800795031568587

>  <PUBCHEM_SHAPE_MULTIPOLES>
282.9
6.69
2.13
0.7
7.8
0.53
0
-1.14
-1.5
-1.85
0.01
0.31
-0.04
0.1

>  <PUBCHEM_SHAPE_SELFOVERLAP>
608.357

>  <PUBCHEM_SHAPE_VOLUME>
155.2

>  <PUBCHEM_COORDINATE_TYPE>
2
5
10

$$$$
