44764071
 OpenBabel01182520543D

 44 44  0  0  1  0  0  0  0  0999 V2000
   -1.3624   -1.8196    1.5051 O   0  0  0  0  0  0  0  0  0  0  0  0
   -2.1668   -0.6341   -0.3183 N   0  0  0  0  0  0  0  0  0  0  0  0
    4.1230    0.3147   -0.7629 N   0  0  0  0  0  0  0  0  0  0  0  0
    2.4953   -0.3279    0.8541 N   0  0  0  0  0  0  0  0  0  0  0  0
   -4.4482    0.2512   -0.6045 C   0  0  0  0  0  0  0  0  0  0  0  0
   -4.0962    1.6465   -0.0461 C   0  0  0  0  0  0  0  0  0  0  0  0
   -3.5673   -0.8974   -0.0861 C   0  0  1  0  0  0  0  0  0  0  0  0
   -4.2174    1.7147    1.4767 C   0  0  0  0  0  0  0  0  0  0  0  0
   -5.0064    2.7008   -0.6826 C   0  0  0  0  0  0  0  0  0  0  0  0
   -3.9582   -2.2160   -0.7482 C   0  0  0  0  0  0  0  0  0  0  0  0
   -1.1696   -1.1257    0.5104 C   0  0  0  0  0  0  0  0  0  0  0  0
    0.2200   -0.7432    0.1504 C   0  0  0  0  0  0  0  0  0  0  0  0
    5.1615    0.3978    0.2117 C   0  0  0  0  0  0  0  0  0  0  0  0
    2.7933   -0.0484   -0.4347 C   0  0  0  0  0  0  0  0  0  0  0  0
    0.5650   -0.4486   -1.1641 C   0  0  0  0  0  0  0  0  0  0  0  0
    1.2132   -0.6690    1.1137 C   0  0  0  0  0  0  0  0  0  0  0  0
    1.8741   -0.0938   -1.4704 C   0  0  0  0  0  0  0  0  0  0  0  0
    6.5156    0.2876   -0.4772 C   0  0  0  0  0  0  0  0  0  0  0  0
    5.0315    1.7104    0.9730 C   0  0  0  0  0  0  0  0  0  0  0  0
   -4.3692    0.2912   -1.6997 H   0  0  0  0  0  0  0  0  0  0  0  0
   -5.4984    0.0239   -0.3785 H   0  0  0  0  0  0  0  0  0  0  0  0
   -3.0639    1.8967   -0.3194 H   0  0  0  0  0  0  0  0  0  0  0  0
   -3.7230   -1.0121    0.9929 H   0  0  0  0  0  0  0  0  0  0  0  0
   -3.4842    1.0653    1.9645 H   0  0  0  0  0  0  0  0  0  0  0  0
   -4.0355    2.7336    1.8356 H   0  0  0  0  0  0  0  0  0  0  0  0
   -5.2164    1.4131    1.8093 H   0  0  0  0  0  0  0  0  0  0  0  0
   -4.7458    3.7043   -0.3298 H   0  0  0  0  0  0  0  0  0  0  0  0
   -4.9050    2.6952   -1.7731 H   0  0  0  0  0  0  0  0  0  0  0  0
   -6.0585    2.5183   -0.4383 H   0  0  0  0  0  0  0  0  0  0  0  0
   -3.7953   -2.1803   -1.8313 H   0  0  0  0  0  0  0  0  0  0  0  0
   -3.3616   -3.0460   -0.3541 H   0  0  0  0  0  0  0  0  0  0  0  0
   -5.0136   -2.4459   -0.5687 H   0  0  0  0  0  0  0  0  0  0  0  0
   -1.9336   -0.0624   -1.1229 H   0  0  0  0  0  0  0  0  0  0  0  0
    5.0938   -0.4367    0.9211 H   0  0  0  0  0  0  0  0  0  0  0  0
    4.2401    0.8269   -1.6320 H   0  0  0  0  0  0  0  0  0  0  0  0
   -0.1470   -0.5129   -1.9810 H   0  0  0  0  0  0  0  0  0  0  0  0
    1.0109   -0.8822    2.1588 H   0  0  0  0  0  0  0  0  0  0  0  0
    2.1518    0.1301   -2.4953 H   0  0  0  0  0  0  0  0  0  0  0  0
    7.3302    0.3303    0.2534 H   0  0  0  0  0  0  0  0  0  0  0  0
    6.5993   -0.6593   -1.0222 H   0  0  0  0  0  0  0  0  0  0  0  0
    6.6651    1.0980   -1.1997 H   0  0  0  0  0  0  0  0  0  0  0  0
    5.8363    1.8115    1.7091 H   0  0  0  0  0  0  0  0  0  0  0  0
    4.0815    1.7776    1.5130 H   0  0  0  0  0  0  0  0  0  0  0  0
    5.0855    2.5708    0.2960 H   0  0  0  0  0  0  0  0  0  0  0  0
  1 11  2  0  0  0  0
  2  7  1  0  0  0  0
  2 11  1  0  0  0  0
  2 33  1  0  0  0  0
  3 13  1  0  0  0  0
  3 14  1  0  0  0  0
  3 35  1  0  0  0  0
  4 14  2  0  0  0  0
  4 16  1  0  0  0  0
  5  6  1  0  0  0  0
  5  7  1  0  0  0  0
  5 20  1  0  0  0  0
  5 21  1  0  0  0  0
  6  8  1  0  0  0  0
  6  9  1  0  0  0  0
  6 22  1  0  0  0  0
  7 10  1  0  0  0  0
  7 23  1  1  0  0  0
  8 24  1  0  0  0  0
  8 25  1  0  0  0  0
  8 26  1  0  0  0  0
  9 27  1  0  0  0  0
  9 28  1  0  0  0  0
  9 29  1  0  0  0  0
 10 30  1  0  0  0  0
 10 31  1  0  0  0  0
 10 32  1  0  0  0  0
 11 12  1  0  0  0  0
 12 15  1  0  0  0  0
 12 16  2  0  0  0  0
 13 18  1  0  0  0  0
 13 19  1  0  0  0  0
 13 34  1  0  0  0  0
 14 17  1  0  0  0  0
 15 17  2  0  0  0  0
 15 36  1  0  0  0  0
 16 37  1  0  0  0  0
 17 38  1  0  0  0  0
 18 39  1  0  0  0  0
 18 40  1  0  0  0  0
 18 41  1  0  0  0  0
 19 42  1  0  0  0  0
 19 43  1  0  0  0  0
 19 44  1  0  0  0  0
M  END
>  <PUBCHEM_COMPOUND_CID>
44764071

>  <PUBCHEM_CONFORMER_RMSD>
0.8

>  <PUBCHEM_CONFORMER_DIVERSEORDER>
2
195
238
263
118
83
14
152
178
131
189
180
256
218
255
111
253
240
141
226
191
84
46
134
126
239
167
100
72
145
242
116
98
194
200
107
96
140
164
6
232
158
248
68
88
203
146
181
169
76
150
64
34
254
174
247
260
26
80
165
196
245
113
132
89
264
225
147
207
108
219
54
160
117
127
193
182
36
234
148
106
109
259
258
162
201
114
257
143
149
139
252
136
177
231
128
74
170
151
249
122
77
237
63
206
59
79
235
214
210
198
99
50
244
173
261
135
17
161
85
197
159
133
230
246
101
5
37
188
104
142
95
30
227
163
187
223
199
75
62
154
102
65
115
78
209
43
211
110
7
112
175
217
138
73
268
51
3
71
233
40
56
243
250
137
87
33
220
69
41
60
93
91
92
228
22
52
215
153
265
49
105
224
27
172
66
48
103
11
35
70
157
90
119
94
205
202
266
21
13
10
53
129
42
156
229
31
81
8
124
221
32
212
185
1
216
236
166
222
9
12
20
176
144
67
130
204
28
184
171
125
58
86
213
29
121
120
55
16
61
57
208
24
192
39
18
4
241
168
97
179
82
251
183
262
25
47
190
186
44
45
38
267
23
155
15
19
123

>  <PUBCHEM_MMFF94_PARTIAL_CHARGES>
17
1 -0.57
11 0.54
12 0.09
13 0.37
14 0.41
15 -0.15
16 0.16
17 -0.15
2 -0.73
3 -0.87
33 0.37
35 0.4
36 0.15
37 0.15
38 0.15
4 -0.62
7 0.3

>  <PUBCHEM_EFFECTIVE_ROTOR_COUNT>
7

>  <PUBCHEM_PHARMACOPHORE_FEATURES>
7
1 1 acceptor
1 2 donor
1 3 donor
3 13 18 19 hydrophobe
3 3 4 14 cation
3 6 8 9 hydrophobe
6 4 12 14 15 16 17 rings

>  <PUBCHEM_HEAVY_ATOM_COUNT>
19

>  <PUBCHEM_ATOM_DEF_STEREO_COUNT>
0

>  <PUBCHEM_ATOM_UDEF_STEREO_COUNT>
1

>  <PUBCHEM_BOND_DEF_STEREO_COUNT>
0

>  <PUBCHEM_BOND_UDEF_STEREO_COUNT>
0

>  <PUBCHEM_ISOTOPIC_ATOM_COUNT>
0

>  <PUBCHEM_COMPONENT_COUNT>
1

>  <PUBCHEM_CACTVS_TAUTO_COUNT>
7

>  <PUBCHEM_CONFORMER_ID>
02AB0BA700000002

>  <PUBCHEM_MMFF94_ENERGY>
44.6219

>  <PUBCHEM_FEATURE_SELFOVERLAP>
35.52

>  <PUBCHEM_SHAPE_FINGERPRINT>
10087517 78 18334853935188579596
10291535 26 17846508010759936873
10498660 4 18270115704774406729
11089746 13 18408317813741618560
117890 112 18409729565175870956
12596602 18 16153434956161704488
13103583 49 14707217582468483949
14123255 352 18412542085506901597
14251764 38 18266459995498993864
15209294 21 18187079538128975933
15475509 8 17532388491351077510
17844677 252 18271811284483958912
17980427 23 18260835937598038356
18769570 83 18409163303518224272
193927 3 10087627230957519685
19489759 90 18411136969543939998
200 152 14261354643542062203
20281389 69 18335419054195144720
20645477 56 18273218591064909779
20645477 70 16558763277668757310
21033648 29 18130495436049031312
21623969 137 13262392255179169448
21709351 56 17703787054682923500
23081809 10 18113335336815746214
23402539 116 18411415133243186678
23402655 69 15195014803660482107
23557571 272 18131353042244239767
23559900 14 17916874504454261534
270888 7 18193272980498666341
2838139 119 17917427588340438992
2916195 48 18410853274069293297
3472631 163 18412261697515860181
441001 317 18343019995336723321
5104073 3 17967245377889052706
5283173 99 18273215291949927472
59682541 35 18334588932640200409
6327066 14 18263637360984068941
7226269 152 18335706018145587704
7808743 9 18338794516675645713

>  <PUBCHEM_SHAPE_MULTIPOLES>
370.2
13.9
2.11
1.3
10.31
0.72
0.15
7.62
-1.21
-3.77
0.14
-0.09
0.01
0.31

>  <PUBCHEM_SHAPE_SELFOVERLAP>
736.756

>  <PUBCHEM_SHAPE_VOLUME>
219.3

>  <PUBCHEM_COORDINATE_TYPE>
2
5
10

$$$$
