45084631
 OpenBabel01182520543D

 18 18  0  0  0  0  0  0  0  0999 V2000
    2.5041   -1.3452    1.1188 O   0  0  0  0  0  0  0  0  0  0  0  0
   -0.2856    1.9987   -0.0167 N   0  0  0  0  0  0  0  0  0  0  0  0
    2.0808    1.8555    0.0051 N   0  0  0  0  0  0  0  0  0  0  0  0
    2.5344   -1.3688   -1.1741 N   0  0  0  0  0  0  0  0  0  0  0  0
   -3.9576   -1.1217   -0.0053 N   0  0  0  0  0  0  0  0  0  0  0  0
    0.7827   -0.1698    0.0220 C   0  0  0  0  0  0  0  0  0  0  0  0
    0.8161    1.2153    0.0032 C   0  0  0  0  0  0  0  0  0  0  0  0
   -0.4612   -0.7909    0.0203 C   0  0  0  0  0  0  0  0  0  0  0  0
   -1.6175   -0.0189    0.0002 C   0  0  0  0  0  0  0  0  0  0  0  0
    1.9885   -0.9866    0.0468 C   0  0  0  0  0  0  0  0  0  0  0  0
   -1.4768    1.3595   -0.0176 C   0  0  0  0  0  0  0  0  0  0  0  0
   -2.9078   -0.6270   -0.0029 C   0  0  0  0  0  0  0  0  0  0  0  0
   -0.5274   -1.8769    0.0354 H   0  0  0  0  0  0  0  0  0  0  0  0
   -2.3404    2.0182   -0.0339 H   0  0  0  0  0  0  0  0  0  0  0  0
    2.8544    1.3998    0.4730 H   0  0  0  0  0  0  0  0  0  0  0  0
    2.0743    2.8682   -0.0131 H   0  0  0  0  0  0  0  0  0  0  0  0
    2.1225   -1.0914   -2.0594 H   0  0  0  0  0  0  0  0  0  0  0  0
    3.3699   -1.9428   -1.2152 H   0  0  0  0  0  0  0  0  0  0  0  0
  1 10  2  0  0  0  0
  2  7  1  0  0  0  0
  2 11  2  0  0  0  0
  3  7  1  0  0  0  0
  3 15  1  0  0  0  0
  3 16  1  0  0  0  0
  4 10  1  0  0  0  0
  4 17  1  0  0  0  0
  4 18  1  0  0  0  0
  5 12  3  0  0  0  0
  6  7  2  0  0  0  0
  6  8  1  0  0  0  0
  6 10  1  0  0  0  0
  8  9  2  0  0  0  0
  8 13  1  0  0  0  0
  9 11  1  0  0  0  0
  9 12  1  0  0  0  0
 11 14  1  0  0  0  0
M  END
>  <PUBCHEM_COMPOUND_CID>
45084631

>  <PUBCHEM_CONFORMER_RMSD>
0.4

>  <PUBCHEM_CONFORMER_DIVERSEORDER>
1
3
2

>  <PUBCHEM_MMFF94_PARTIAL_CHARGES>
18
1 -0.57
10 0.54
11 0.16
12 0.48
13 0.15
14 0.15
15 0.4
16 0.4
17 0.37
18 0.37
2 -0.62
3 -0.9
4 -0.8
5 -0.56
6 0.09
7 0.41
8 -0.15
9 0.07

>  <PUBCHEM_EFFECTIVE_ROTOR_COUNT>
1

>  <PUBCHEM_PHARMACOPHORE_FEATURES>
7
1 1 acceptor
1 2 acceptor
1 3 cation
1 3 donor
1 4 donor
1 5 acceptor
6 2 6 7 8 9 11 rings

>  <PUBCHEM_HEAVY_ATOM_COUNT>
12

>  <PUBCHEM_ATOM_DEF_STEREO_COUNT>
0

>  <PUBCHEM_ATOM_UDEF_STEREO_COUNT>
0

>  <PUBCHEM_BOND_DEF_STEREO_COUNT>
0

>  <PUBCHEM_BOND_UDEF_STEREO_COUNT>
0

>  <PUBCHEM_ISOTOPIC_ATOM_COUNT>
0

>  <PUBCHEM_COMPONENT_COUNT>
1

>  <PUBCHEM_CACTVS_TAUTO_COUNT>
7

>  <PUBCHEM_CONFORMER_ID>
02AFEFD700000001

>  <PUBCHEM_MMFF94_ENERGY>
40.3679

>  <PUBCHEM_FEATURE_SELFOVERLAP>
35.522

>  <PUBCHEM_SHAPE_FINGERPRINT>
10857977 72 18270105817136861546
11206711 2 18189055309074068495
12423570 1 11599722814190432466
13380535 76 18120933073110037634
14128692 85 18338808826936574108
161256 15 18411139155735138740
16945 1 18050285869017631233
20645477 70 18339637945294723559
20653091 64 18408322176995920344
20715346 28 17774147990578303590
20871998 184 18129371601446470870
20871998 22 18342460300757626238
21501502 16 18409732837413715577
21501925 9 18338785784553049731
23552423 10 18260554419661058853
23559900 14 17550384039297297102
241688 4 18336265630777317673
2748010 2 18410284796624889373
5084963 1 17988647354554443971
528862 383 18337949120433584157
7364860 26 18201158861937768256
81539 233 18044652237840937188

>  <PUBCHEM_SHAPE_MULTIPOLES>
221.16
4.6
1.94
0.76
2.87
0.8
0.02
-2.41
0.05
-0.68
0.02
-0.44
-0.24
0.03

>  <PUBCHEM_SHAPE_SELFOVERLAP>
467.244

>  <PUBCHEM_SHAPE_VOLUME>
121.7

>  <PUBCHEM_COORDINATE_TYPE>
2
5
10

$$$$
