45081094
 OpenBabel01182520543D

 18 18  0  0  0  0  0  0  0  0999 V2000
   -4.4252    0.5296    0.0507 Br  0  0  0  0  0  0  0  0  0  0  0  0
   -2.2014   -1.4241   -0.0218 O   0  0  0  0  0  0  0  0  0  0  0  0
    1.7205    1.2707   -0.0058 N   0  0  0  0  0  0  0  0  0  0  0  0
    3.8953    0.2976    0.0133 N   0  0  0  0  0  0  0  0  0  0  0  0
   -0.2244   -0.1652   -0.0068 C   0  0  0  0  0  0  0  0  0  0  0  0
    0.5955   -1.2882    0.0055 C   0  0  0  0  0  0  0  0  0  0  0  0
   -1.6711   -0.2942   -0.0141 C   0  0  0  0  0  0  0  0  0  0  0  0
    0.3820    1.0805   -0.0119 C   0  0  0  0  0  0  0  0  0  0  0  0
    1.9774   -1.1331    0.0124 C   0  0  0  0  0  0  0  0  0  0  0  0
    2.4853    0.1560    0.0063 C   0  0  0  0  0  0  0  0  0  0  0  0
   -2.5339    0.9703   -0.0277 C   0  0  0  0  0  0  0  0  0  0  0  0
    0.1812   -2.2926    0.0100 H   0  0  0  0  0  0  0  0  0  0  0  0
   -0.1792    2.0084   -0.0235 H   0  0  0  0  0  0  0  0  0  0  0  0
    2.6236   -2.0048    0.0214 H   0  0  0  0  0  0  0  0  0  0  0  0
   -2.3348    1.5846    0.8532 H   0  0  0  0  0  0  0  0  0  0  0  0
   -2.3863    1.5272   -0.9556 H   0  0  0  0  0  0  0  0  0  0  0  0
    4.4508   -0.4335    0.4402 H   0  0  0  0  0  0  0  0  0  0  0  0
    4.2620    1.2414    0.0151 H   0  0  0  0  0  0  0  0  0  0  0  0
  1 11  1  0  0  0  0
  2  7  2  0  0  0  0
  3  8  1  0  0  0  0
  3 10  2  0  0  0  0
  4 10  1  0  0  0  0
  4 17  1  0  0  0  0
  4 18  1  0  0  0  0
  5  6  1  0  0  0  0
  5  7  1  0  0  0  0
  5  8  2  0  0  0  0
  6  9  2  0  0  0  0
  6 12  1  0  0  0  0
  7 11  1  0  0  0  0
  8 13  1  0  0  0  0
  9 10  1  0  0  0  0
  9 14  1  0  0  0  0
 11 15  1  0  0  0  0
 11 16  1  0  0  0  0
M  END
>  <PUBCHEM_COMPOUND_CID>
45081094

>  <PUBCHEM_CONFORMER_RMSD>
0.4

>  <PUBCHEM_CONFORMER_DIVERSEORDER>
1
23
4
28
25
17
5
27
10
8
11
15
13
29
26
7
22
24
2
3
20
14
12
9
16
6
18
19
21

>  <PUBCHEM_MMFF94_PARTIAL_CHARGES>
16
1 -0.23
10 0.41
11 0.29
12 0.15
13 0.15
14 0.15
17 0.4
18 0.4
2 -0.57
3 -0.62
4 -0.9
5 0.09
6 -0.15
7 0.42
8 0.16
9 -0.15

>  <PUBCHEM_EFFECTIVE_ROTOR_COUNT>
2

>  <PUBCHEM_PHARMACOPHORE_FEATURES>
5
1 1 hydrophobe
1 2 acceptor
1 4 donor
3 3 4 10 cation
6 3 5 6 8 9 10 rings

>  <PUBCHEM_HEAVY_ATOM_COUNT>
11

>  <PUBCHEM_ATOM_DEF_STEREO_COUNT>
0

>  <PUBCHEM_ATOM_UDEF_STEREO_COUNT>
0

>  <PUBCHEM_BOND_DEF_STEREO_COUNT>
0

>  <PUBCHEM_BOND_UDEF_STEREO_COUNT>
0

>  <PUBCHEM_ISOTOPIC_ATOM_COUNT>
0

>  <PUBCHEM_COMPONENT_COUNT>
1

>  <PUBCHEM_CACTVS_TAUTO_COUNT>
9

>  <PUBCHEM_CONFORMER_ID>
02AFE20600000001

>  <PUBCHEM_MMFF94_ENERGY>
35.2519

>  <PUBCHEM_FEATURE_SELFOVERLAP>
25.371

>  <PUBCHEM_SHAPE_FINGERPRINT>
11062470 55 17489586749195148849
11471102 20 18410571752021703917
12932764 1 17240751900336169687
13380535 76 18411138030717568087
14144814 61 18339362968244374241
14325111 11 18411136986823970988
14897335 6 18412541007554278991
15775835 57 18410014338196698581
16945 1 18410290285429231900
17844478 74 17894636907509837581
20201158 50 18410575067631052235
20645477 70 18267297639171202671
21040471 1 18266458887670854598
23235685 24 18410849958306801601
23402539 116 18059848446784045893
23402655 69 18270390599855796133
23552423 10 18261674873528082734
2748010 2 18267021854461422692
528886 8 18411132537111174002
53812653 166 18341608230906838504

>  <PUBCHEM_SHAPE_MULTIPOLES>
216.49
6.5
1.39
0.61
3.54
0.18
0
-1.22
0.1
-0.1
-0.01
0.09
0
-0.01

>  <PUBCHEM_SHAPE_SELFOVERLAP>
433.205

>  <PUBCHEM_SHAPE_VOLUME>
130.7

>  <PUBCHEM_COORDINATE_TYPE>
2
5
10

$$$$
