47080109
 OpenBabel01182520543D

 44 44  0  0  1  0  0  0  0  0999 V2000
   -1.8903   -2.0502    1.1780 O   0  0  0  0  0  0  0  0  0  0  0  0
   -2.5407   -0.3838   -0.2976 N   0  0  0  0  0  0  0  0  0  0  0  0
    3.7899    0.3584   -0.1349 N   0  0  0  0  0  0  0  0  0  0  0  0
    2.0443   -0.6182    1.1597 N   0  0  0  0  0  0  0  0  0  0  0  0
   -3.9608   -0.6349   -0.2197 C   0  0  1  0  0  0  0  0  0  0  0  0
   -4.7695    0.6528   -0.4317 C   0  0  0  0  0  0  0  0  0  0  0  0
   -4.3917    1.7543    0.5634 C   0  0  0  0  0  0  0  0  0  0  0  0
   -4.3519   -1.6957   -1.2438 C   0  0  0  0  0  0  0  0  0  0  0  0
   -5.1878    3.0257    0.3123 C   0  0  0  0  0  0  0  0  0  0  0  0
   -1.6139   -1.1248    0.4192 C   0  0  0  0  0  0  0  0  0  0  0  0
    2.4317   -0.0178    0.0120 C   0  0  0  0  0  0  0  0  0  0  0  0
    4.7336    0.1074    0.9317 C   0  0  0  0  0  0  0  0  0  0  0  0
    4.2390    1.0025   -1.3492 C   0  0  0  0  0  0  0  0  0  0  0  0
   -0.1932   -0.7245    0.2503 C   0  0  0  0  0  0  0  0  0  0  0  0
    1.5792    0.2584   -1.0449 C   0  0  0  0  0  0  0  0  0  0  0  0
    0.2432   -0.1048   -0.9156 C   0  0  0  0  0  0  0  0  0  0  0  0
    0.7385   -0.9568    1.2491 C   0  0  0  0  0  0  0  0  0  0  0  0
    4.6209    1.1849    1.9930 C   0  0  0  0  0  0  0  0  0  0  0  0
    4.4796   -0.0326   -2.4312 C   0  0  0  0  0  0  0  0  0  0  0  0
   -4.1844   -1.0267    0.7805 H   0  0  0  0  0  0  0  0  0  0  0  0
   -5.8401    0.4306   -0.3413 H   0  0  0  0  0  0  0  0  0  0  0  0
   -4.6060    1.0251   -1.4516 H   0  0  0  0  0  0  0  0  0  0  0  0
   -3.3256    1.9952    0.4898 H   0  0  0  0  0  0  0  0  0  0  0  0
   -4.5766    1.4074    1.5866 H   0  0  0  0  0  0  0  0  0  0  0  0
   -2.2398    0.3704   -0.9053 H   0  0  0  0  0  0  0  0  0  0  0  0
   -5.4228   -1.9172   -1.1878 H   0  0  0  0  0  0  0  0  0  0  0  0
   -3.8060   -2.6295   -1.0707 H   0  0  0  0  0  0  0  0  0  0  0  0
   -4.1240   -1.3661   -2.2637 H   0  0  0  0  0  0  0  0  0  0  0  0
   -4.9077    3.7974    1.0363 H   0  0  0  0  0  0  0  0  0  0  0  0
   -6.2623    2.8416    0.4109 H   0  0  0  0  0  0  0  0  0  0  0  0
   -4.9963    3.4167   -0.6921 H   0  0  0  0  0  0  0  0  0  0  0  0
    5.7587    0.0998    0.5411 H   0  0  0  0  0  0  0  0  0  0  0  0
    4.5815   -0.8838    1.3759 H   0  0  0  0  0  0  0  0  0  0  0  0
    5.1938    1.5113   -1.1600 H   0  0  0  0  0  0  0  0  0  0  0  0
    3.5768    1.8094   -1.6827 H   0  0  0  0  0  0  0  0  0  0  0  0
    1.8589    0.7351   -1.9747 H   0  0  0  0  0  0  0  0  0  0  0  0
   -0.4183    0.0853   -1.7552 H   0  0  0  0  0  0  0  0  0  0  0  0
    0.4640   -1.4326    2.1855 H   0  0  0  0  0  0  0  0  0  0  0  0
    5.3614    1.0169    2.7815 H   0  0  0  0  0  0  0  0  0  0  0  0
    3.6316    1.1982    2.4609 H   0  0  0  0  0  0  0  0  0  0  0  0
    4.8006    2.1777    1.5666 H   0  0  0  0  0  0  0  0  0  0  0  0
    4.8577    0.4538   -3.3363 H   0  0  0  0  0  0  0  0  0  0  0  0
    3.5805   -0.5904   -2.7060 H   0  0  0  0  0  0  0  0  0  0  0  0
    5.2297   -0.7638   -2.1093 H   0  0  0  0  0  0  0  0  0  0  0  0
  1 10  2  0  0  0  0
  2  5  1  0  0  0  0
  2 10  1  0  0  0  0
  2 25  1  0  0  0  0
  3 11  1  0  0  0  0
  3 12  1  0  0  0  0
  3 13  1  0  0  0  0
  4 11  2  0  0  0  0
  4 17  1  0  0  0  0
  5  6  1  0  0  0  0
  5  8  1  0  0  0  0
  5 20  1  1  0  0  0
  6  7  1  0  0  0  0
  6 21  1  0  0  0  0
  6 22  1  0  0  0  0
  7  9  1  0  0  0  0
  7 23  1  0  0  0  0
  7 24  1  0  0  0  0
  8 26  1  0  0  0  0
  8 27  1  0  0  0  0
  8 28  1  0  0  0  0
  9 29  1  0  0  0  0
  9 30  1  0  0  0  0
  9 31  1  0  0  0  0
 10 14  1  0  0  0  0
 11 15  1  0  0  0  0
 12 18  1  0  0  0  0
 12 32  1  0  0  0  0
 12 33  1  0  0  0  0
 13 19  1  0  0  0  0
 13 34  1  0  0  0  0
 13 35  1  0  0  0  0
 14 16  1  0  0  0  0
 14 17  2  0  0  0  0
 15 16  2  0  0  0  0
 15 36  1  0  0  0  0
 16 37  1  0  0  0  0
 17 38  1  0  0  0  0
 18 39  1  0  0  0  0
 18 40  1  0  0  0  0
 18 41  1  0  0  0  0
 19 42  1  0  0  0  0
 19 43  1  0  0  0  0
 19 44  1  0  0  0  0
M  END
>  <PUBCHEM_COMPOUND_CID>
47080109

>  <PUBCHEM_CONFORMER_RMSD>
0.8

>  <PUBCHEM_CONFORMER_DIVERSEORDER>
2
69
129
82
112
15
74
44
138
135
81
97
77
130
95
22
60
100
35
121
99
66
9
76
126
146
91
132
107
147
47
40
144
101
25
67
5
53
114
136
131
42
17
118
145
92
36
88
56
28
86
127
46
33
26
139
13
137
125
68
4
105
96
148
62
58
103
120
89
11
87
34
61
78
24
64
79
109
3
20
21
29
140
71
52
55
51
122
134
50
111
85
70
143
142
38
83
59
119
7
19
93
57
113
30
48
102
39
43
31
123
84
73
45
41
75
23
65
117
12
27
98
16
80
72
108
141
128
18
37
54
94
133
14
10
1
63
90
110
8
49
6
32
115
104
116
106
124

>  <PUBCHEM_MMFF94_PARTIAL_CHARGES>
17
1 -0.57
10 0.54
11 0.41
12 0.37
13 0.37
14 0.09
15 -0.15
16 -0.15
17 0.16
2 -0.73
25 0.37
3 -0.84
36 0.15
37 0.15
38 0.15
4 -0.62
5 0.3

>  <PUBCHEM_EFFECTIVE_ROTOR_COUNT>
8

>  <PUBCHEM_PHARMACOPHORE_FEATURES>
5
1 1 acceptor
1 2 donor
1 9 hydrophobe
3 3 4 11 cation
6 4 11 14 15 16 17 rings

>  <PUBCHEM_HEAVY_ATOM_COUNT>
19

>  <PUBCHEM_ATOM_DEF_STEREO_COUNT>
0

>  <PUBCHEM_ATOM_UDEF_STEREO_COUNT>
1

>  <PUBCHEM_BOND_DEF_STEREO_COUNT>
0

>  <PUBCHEM_BOND_UDEF_STEREO_COUNT>
0

>  <PUBCHEM_ISOTOPIC_ATOM_COUNT>
0

>  <PUBCHEM_COMPONENT_COUNT>
1

>  <PUBCHEM_CACTVS_TAUTO_COUNT>
2

>  <PUBCHEM_CONFORMER_ID>
02CE62AD00000002

>  <PUBCHEM_MMFF94_ENERGY>
45.3846

>  <PUBCHEM_FEATURE_SELFOVERLAP>
25.371

>  <PUBCHEM_SHAPE_FINGERPRINT>
10498660 4 18059856117411098385
10912923 1 17531247296089603939
11089746 13 18409440414855180064
12403259 415 17632583768247227263
12596602 18 16298395660390007641
12616971 3 17530682086999365228
12633257 1 17603580846150317252
12644460 14 16008750229973796428
12916748 109 18410017637232839243
13675066 3 13912316893418011990
13760787 5 16226040137218150518
14251764 38 18269549614593705265
14251764 75 15071476035438253742
14573314 32 17918280835138087172
15209294 21 18334853884049398049
15238133 3 18334012774718266408
15475509 8 17896618197693549662
17357779 13 16200432446861270049
17844677 252 18131351942231439193
19489759 90 18342451569220826467
20645477 70 15769786770812981590
21033650 10 18270696297920249489
22393880 68 17703795799167948743
23402539 116 18341322357973235503
23557571 272 17845928632377071545
23559900 14 16487262084291808806
23596394 208 17131839737455481262
2838139 119 17986944168600170457
2916195 48 18129931377429629681
328310 1195 17346588703525061976
32948 21 18202009785153120590
3472631 163 18342737369847302389
34797466 226 17845377806815821756
441001 317 18272080600624734041
46194498 28 17417240082578750505
5104073 3 16950845920288542408
5281201 14 17418378029478448721
5283173 99 17989202642328518105
59682541 52 16342292438152839309
633830 44 18114465557111912099
90127 26 18272657891125556640

>  <PUBCHEM_SHAPE_MULTIPOLES>
370.2
12.75
1.98
1.73
3.05
1.2
0.29
6.16
2.29
3.9
-0.18
-2.74
-0.18
0.79

>  <PUBCHEM_SHAPE_SELFOVERLAP>
735.882

>  <PUBCHEM_SHAPE_VOLUME>
219.2

>  <PUBCHEM_COORDINATE_TYPE>
2
5
10

$$$$
