47187974
 OpenBabel01182520543D

 38 38  0  0  0  0  0  0  0  0999 V2000
    0.1796   -1.4646   -1.2252 O   0  0  0  0  0  0  0  0  0  0  0  0
   -0.9820   -0.7242    0.6412 N   0  0  0  0  0  0  0  0  0  0  0  0
    2.8305   -1.1438    0.1048 N   0  0  0  0  0  0  0  0  0  0  0  0
    3.2965    1.1775    0.2250 N   0  0  0  0  0  0  0  0  0  0  0  0
   -3.2012   -1.3189   -0.2076 C   0  0  0  0  0  0  0  0  0  0  0  0
   -3.8439   -0.0478    0.3473 C   0  0  0  0  0  0  0  0  0  0  0  0
   -1.9975   -1.7414    0.6260 C   0  0  0  0  0  0  0  0  0  0  0  0
   -5.0738    0.3544   -0.4661 C   0  0  0  0  0  0  0  0  0  0  0  0
   -5.6963    1.6370    0.0624 C   0  0  0  0  0  0  0  0  0  0  0  0
    1.0255    0.4291   -0.1313 C   0  0  0  0  0  0  0  0  0  0  0  0
    0.0390   -0.6687   -0.3004 C   0  0  0  0  0  0  0  0  0  0  0  0
    2.3776    0.1989    0.0653 C   0  0  0  0  0  0  0  0  0  0  0  0
    0.5883    1.7486   -0.1662 C   0  0  0  0  0  0  0  0  0  0  0  0
    3.8013   -1.6120   -0.8589 C   0  0  0  0  0  0  0  0  0  0  0  0
    2.3184   -2.0543    1.1042 C   0  0  0  0  0  0  0  0  0  0  0  0
    1.5037    2.7829   -0.0057 C   0  0  0  0  0  0  0  0  0  0  0  0
    2.8344    2.4474    0.1853 C   0  0  0  0  0  0  0  0  0  0  0  0
   -2.8947   -1.1513   -1.2474 H   0  0  0  0  0  0  0  0  0  0  0  0
   -3.9351   -2.1334   -0.2128 H   0  0  0  0  0  0  0  0  0  0  0  0
   -3.1242    0.7793    0.3323 H   0  0  0  0  0  0  0  0  0  0  0  0
   -4.1329   -0.2060    1.3936 H   0  0  0  0  0  0  0  0  0  0  0  0
   -2.2922   -1.9272    1.6642 H   0  0  0  0  0  0  0  0  0  0  0  0
   -1.5753   -2.6690    0.2243 H   0  0  0  0  0  0  0  0  0  0  0  0
   -4.7952    0.4980   -1.5166 H   0  0  0  0  0  0  0  0  0  0  0  0
   -5.8198   -0.4482   -0.4348 H   0  0  0  0  0  0  0  0  0  0  0  0
   -1.0127   -0.0305    1.3829 H   0  0  0  0  0  0  0  0  0  0  0  0
   -6.0138    1.5188    1.1034 H   0  0  0  0  0  0  0  0  0  0  0  0
   -4.9857    2.4681    0.0118 H   0  0  0  0  0  0  0  0  0  0  0  0
   -6.5751    1.9049   -0.5325 H   0  0  0  0  0  0  0  0  0  0  0  0
   -0.4608    1.9864   -0.3212 H   0  0  0  0  0  0  0  0  0  0  0  0
    3.9387   -2.6968   -0.7932 H   0  0  0  0  0  0  0  0  0  0  0  0
    4.7742   -1.1399   -0.6867 H   0  0  0  0  0  0  0  0  0  0  0  0
    3.4768   -1.3815   -1.8793 H   0  0  0  0  0  0  0  0  0  0  0  0
    3.1435   -2.6122    1.5611 H   0  0  0  0  0  0  0  0  0  0  0  0
    1.6351   -2.7836    0.6577 H   0  0  0  0  0  0  0  0  0  0  0  0
    1.7996   -1.5349    1.9178 H   0  0  0  0  0  0  0  0  0  0  0  0
    1.1858    3.8189   -0.0303 H   0  0  0  0  0  0  0  0  0  0  0  0
    3.5880    3.2171    0.3153 H   0  0  0  0  0  0  0  0  0  0  0  0
  1 11  2  0  0  0  0
  2  7  1  0  0  0  0
  2 11  1  0  0  0  0
  2 26  1  0  0  0  0
  3 12  1  0  0  0  0
  3 14  1  0  0  0  0
  3 15  1  0  0  0  0
  4 12  1  0  0  0  0
  4 17  2  0  0  0  0
  5  6  1  0  0  0  0
  5  7  1  0  0  0  0
  5 18  1  0  0  0  0
  5 19  1  0  0  0  0
  6  8  1  0  0  0  0
  6 20  1  0  0  0  0
  6 21  1  0  0  0  0
  7 22  1  0  0  0  0
  7 23  1  0  0  0  0
  8  9  1  0  0  0  0
  8 24  1  0  0  0  0
  8 25  1  0  0  0  0
  9 27  1  0  0  0  0
  9 28  1  0  0  0  0
  9 29  1  0  0  0  0
 10 11  1  0  0  0  0
 10 12  2  0  0  0  0
 10 13  1  0  0  0  0
 13 16  2  0  0  0  0
 13 30  1  0  0  0  0
 14 31  1  0  0  0  0
 14 32  1  0  0  0  0
 14 33  1  0  0  0  0
 15 34  1  0  0  0  0
 15 35  1  0  0  0  0
 15 36  1  0  0  0  0
 16 17  1  0  0  0  0
 16 37  1  0  0  0  0
 17 38  1  0  0  0  0
M  END
>  <PUBCHEM_COMPOUND_CID>
47187974

>  <PUBCHEM_CONFORMER_RMSD>
0.8

>  <PUBCHEM_CONFORMER_DIVERSEORDER>
3
43
12
27
38
2
33
49
40
29
44
13
23
45
18
22
21
14
42
9
47
6
24
50
5
39
51
19
20
41
25
52
28
36
48
15
7
4
1
8
11
46
10
26
16
30
34
17
32
31
35
37

>  <PUBCHEM_MMFF94_PARTIAL_CHARGES>
17
1 -0.57
10 0.09
11 0.54
12 0.41
13 -0.15
14 0.37
15 0.37
16 -0.15
17 0.16
2 -0.73
26 0.37
3 -0.84
30 0.15
37 0.15
38 0.15
4 -0.62
7 0.3

>  <PUBCHEM_EFFECTIVE_ROTOR_COUNT>
7

>  <PUBCHEM_PHARMACOPHORE_FEATURES>
6
1 1 acceptor
1 2 donor
1 3 cation
1 4 acceptor
1 9 hydrophobe
6 4 10 12 13 16 17 rings

>  <PUBCHEM_HEAVY_ATOM_COUNT>
17

>  <PUBCHEM_ATOM_DEF_STEREO_COUNT>
0

>  <PUBCHEM_ATOM_UDEF_STEREO_COUNT>
0

>  <PUBCHEM_BOND_DEF_STEREO_COUNT>
0

>  <PUBCHEM_BOND_UDEF_STEREO_COUNT>
0

>  <PUBCHEM_ISOTOPIC_ATOM_COUNT>
0

>  <PUBCHEM_COMPONENT_COUNT>
1

>  <PUBCHEM_CACTVS_TAUTO_COUNT>
2

>  <PUBCHEM_CONFORMER_ID>
02D0080600000003

>  <PUBCHEM_MMFF94_ENERGY>
51.7511

>  <PUBCHEM_FEATURE_SELFOVERLAP>
30.446

>  <PUBCHEM_SHAPE_FINGERPRINT>
10608611 8 18264207083609616433
10980938 120 18267585899931983440
116883 192 18199193892729761652
11961588 58 13325998002160478536
12507560 40 18263088867346889243
13675066 3 17894917347546895603
14178342 30 17908124831237803650
14790565 3 17758683630449942356
15042514 8 17761485890614902778
15196674 1 18410856573316216077
15442244 35 18411984624289465761
16945 1 18126576849658777036
17492 89 18341613784527302007
18186145 218 18186514415175492295
192875 21 17917712375205959313
20645477 70 18341896311480239175
20832881 197 18115025178106990002
212847 35 18114466673776431351
21421861 104 17822557327486680416
21452121 103 18342449383451725176
21478907 32 17833832664405517202
22892500 29 18334574650639388687
23402655 69 18342175604808644757
23559900 14 18343301465876145930
34934 24 18340763840536813768
351380 180 18410289199583344813
5104073 3 18408041836312530643
543358 83 18409167701231886674
633830 44 18335414690740441719
6443956 14 18338240340902709830
7364860 26 18342181128315675470
9709674 26 18264492965102083731
9971528 1 18201716219727582706

>  <PUBCHEM_SHAPE_MULTIPOLES>
329.04
9.31
2.84
0.87
14.31
1.23
0.03
1.98
0.44
-1.97
-0.22
-0.21
-0.37
0.25

>  <PUBCHEM_SHAPE_SELFOVERLAP>
656.544

>  <PUBCHEM_SHAPE_VOLUME>
194.7

>  <PUBCHEM_COORDINATE_TYPE>
2
5
10

$$$$
