47187966
 OpenBabel01182520543D

 32 32  0  0  0  0  0  0  0  0999 V2000
    0.9338    0.7849    1.4926 O   0  0  0  0  0  0  0  0  0  0  0  0
    1.8587   -0.3492   -0.3065 N   0  0  0  0  0  0  0  0  0  0  0  0
   -1.4396    1.6726   -0.1277 N   0  0  0  0  0  0  0  0  0  0  0  0
   -2.8368   -0.2213   -0.4127 N   0  0  0  0  0  0  0  0  0  0  0  0
    3.2167    0.0950   -0.1063 C   0  0  0  0  0  0  0  0  0  0  0  0
   -0.5176   -0.5255    0.1985 C   0  0  0  0  0  0  0  0  0  0  0  0
   -1.6108    0.2654   -0.1165 C   0  0  0  0  0  0  0  0  0  0  0  0
    0.8173    0.0400    0.5231 C   0  0  0  0  0  0  0  0  0  0  0  0
    3.9526   -0.8450    0.8406 C   0  0  0  0  0  0  0  0  0  0  0  0
    3.9390    0.2091   -1.4424 C   0  0  0  0  0  0  0  0  0  0  0  0
   -0.6938   -1.9047    0.2102 C   0  0  0  0  0  0  0  0  0  0  0  0
   -0.4799    2.2807   -1.0218 C   0  0  0  0  0  0  0  0  0  0  0  0
   -2.2292    2.5078    0.7494 C   0  0  0  0  0  0  0  0  0  0  0  0
   -1.9403   -2.4432   -0.0893 C   0  0  0  0  0  0  0  0  0  0  0  0
   -2.9700   -1.5666   -0.3914 C   0  0  0  0  0  0  0  0  0  0  0  0
    3.1864    1.0902    0.3537 H   0  0  0  0  0  0  0  0  0  0  0  0
    1.6736   -1.0064   -1.0593 H   0  0  0  0  0  0  0  0  0  0  0  0
    3.9940   -1.8626    0.4362 H   0  0  0  0  0  0  0  0  0  0  0  0
    3.4478   -0.8979    1.8114 H   0  0  0  0  0  0  0  0  0  0  0  0
    4.9787   -0.5036    1.0123 H   0  0  0  0  0  0  0  0  0  0  0  0
    3.9936   -0.7604   -1.9501 H   0  0  0  0  0  0  0  0  0  0  0  0
    3.4131    0.9011   -2.1095 H   0  0  0  0  0  0  0  0  0  0  0  0
    4.9599    0.5804   -1.3056 H   0  0  0  0  0  0  0  0  0  0  0  0
    0.1283   -2.5719    0.4555 H   0  0  0  0  0  0  0  0  0  0  0  0
   -0.9289    3.1457   -1.5228 H   0  0  0  0  0  0  0  0  0  0  0  0
   -0.1492    1.5952   -1.8102 H   0  0  0  0  0  0  0  0  0  0  0  0
    0.3971    2.6364   -0.4719 H   0  0  0  0  0  0  0  0  0  0  0  0
   -1.8689    3.5422    0.7470 H   0  0  0  0  0  0  0  0  0  0  0  0
   -2.1789    2.1435    1.7812 H   0  0  0  0  0  0  0  0  0  0  0  0
   -3.2773    2.5165    0.4327 H   0  0  0  0  0  0  0  0  0  0  0  0
   -2.1013   -3.5151   -0.0852 H   0  0  0  0  0  0  0  0  0  0  0  0
   -3.9615   -1.9360   -0.6316 H   0  0  0  0  0  0  0  0  0  0  0  0
  1  8  2  0  0  0  0
  2  5  1  0  0  0  0
  2  8  1  0  0  0  0
  2 17  1  0  0  0  0
  3  7  1  0  0  0  0
  3 12  1  0  0  0  0
  3 13  1  0  0  0  0
  4  7  1  0  0  0  0
  4 15  2  0  0  0  0
  5  9  1  0  0  0  0
  5 10  1  0  0  0  0
  5 16  1  0  0  0  0
  6  7  2  0  0  0  0
  6  8  1  0  0  0  0
  6 11  1  0  0  0  0
  9 18  1  0  0  0  0
  9 19  1  0  0  0  0
  9 20  1  0  0  0  0
 10 21  1  0  0  0  0
 10 22  1  0  0  0  0
 10 23  1  0  0  0  0
 11 14  2  0  0  0  0
 11 24  1  0  0  0  0
 12 25  1  0  0  0  0
 12 26  1  0  0  0  0
 12 27  1  0  0  0  0
 13 28  1  0  0  0  0
 13 29  1  0  0  0  0
 13 30  1  0  0  0  0
 14 15  1  0  0  0  0
 14 31  1  0  0  0  0
 15 32  1  0  0  0  0
M  END
>  <PUBCHEM_COMPOUND_CID>
47187966

>  <PUBCHEM_CONFORMER_RMSD>
0.6

>  <PUBCHEM_CONFORMER_DIVERSEORDER>
2
8
3
7
5
4
9
1
10
6
12
11

>  <PUBCHEM_MMFF94_PARTIAL_CHARGES>
17
1 -0.57
11 -0.15
12 0.37
13 0.37
14 -0.15
15 0.16
17 0.37
2 -0.73
24 0.15
3 -0.84
31 0.15
32 0.15
4 -0.62
5 0.3
6 0.09
7 0.41
8 0.54

>  <PUBCHEM_EFFECTIVE_ROTOR_COUNT>
4

>  <PUBCHEM_PHARMACOPHORE_FEATURES>
6
1 1 acceptor
1 2 donor
1 3 cation
1 4 acceptor
3 5 9 10 hydrophobe
6 4 6 7 11 14 15 rings

>  <PUBCHEM_HEAVY_ATOM_COUNT>
15

>  <PUBCHEM_ATOM_DEF_STEREO_COUNT>
0

>  <PUBCHEM_ATOM_UDEF_STEREO_COUNT>
0

>  <PUBCHEM_BOND_DEF_STEREO_COUNT>
0

>  <PUBCHEM_BOND_UDEF_STEREO_COUNT>
0

>  <PUBCHEM_ISOTOPIC_ATOM_COUNT>
0

>  <PUBCHEM_COMPONENT_COUNT>
1

>  <PUBCHEM_CACTVS_TAUTO_COUNT>
2

>  <PUBCHEM_CONFORMER_ID>
02D007FE00000002

>  <PUBCHEM_MMFF94_ENERGY>
56.5712

>  <PUBCHEM_FEATURE_SELFOVERLAP>
30.446

>  <PUBCHEM_SHAPE_FINGERPRINT>
12173636 292 18196933275285336460
12423570 1 13878445570494296033
14614273 12 18117268169179660045
15669948 3 18408605872634344134
16945 1 18343019999441786611
17134986 127 17686338672607100181
20711985 344 18411972577069750379
20871999 31 18261385715319428415
21061003 4 16916796214023839066
21501502 16 18266740190643534950
21524375 3 17972598784056640905
22802520 49 18343300413556183466
228727 97 17894628196946688290
23402539 116 18339628001822733319
23557571 272 18272370893359382736
23559900 14 18058162827171815594
23598291 2 17895758388101073814
2748010 2 18052242183898016251
3071541 250 17904772420337429503
3082319 5 18113340825604582958
6992083 37 18041561313302904628
7364860 26 17476077303354245177
7615 1 18040431092980546476
77492 1 17676201360367058634
81228 2 18409166636090468985

>  <PUBCHEM_SHAPE_MULTIPOLES>
287.88
5.9
2.55
1.07
6.32
0.63
-0.01
-1.22
-0.84
-2.69
-0.02
0.69
0.31
-0.63

>  <PUBCHEM_SHAPE_SELFOVERLAP>
582.572

>  <PUBCHEM_SHAPE_VOLUME>
169.1

>  <PUBCHEM_COORDINATE_TYPE>
2
5
10

$$$$
