47188131
 OpenBabel01182520543D

 38 38  0  0  0  0  0  0  0  0999 V2000
   -0.0422    0.1708    2.1065 O   0  0  0  0  0  0  0  0  0  0  0  0
    1.0733   -1.1229    0.5368 N   0  0  0  0  0  0  0  0  0  0  0  0
   -1.4429    1.7738   -0.0183 N   0  0  0  0  0  0  0  0  0  0  0  0
   -3.1311    0.3868   -0.9386 N   0  0  0  0  0  0  0  0  0  0  0  0
    3.5126    0.1154   -0.7875 C   0  0  0  0  0  0  0  0  0  0  0  0
    3.2230    0.0667    0.7261 C   0  0  0  0  0  0  0  0  0  0  0  0
    2.3571   -1.1058    1.1806 C   0  0  0  0  0  0  0  0  0  0  0  0
    4.3342    1.3422   -1.1859 C   0  0  0  0  0  0  0  0  0  0  0  0
    4.2476   -1.1585   -1.2137 C   0  0  0  0  0  0  0  0  0  0  0  0
   -0.0391   -0.4729    1.0605 C   0  0  0  0  0  0  0  0  0  0  0  0
   -1.3005   -0.6082    0.2878 C   0  0  0  0  0  0  0  0  0  0  0  0
   -1.9806    0.4800   -0.2346 C   0  0  0  0  0  0  0  0  0  0  0  0
   -1.8354   -1.8738    0.0739 C   0  0  0  0  0  0  0  0  0  0  0  0
   -2.2157    2.7739    0.6836 C   0  0  0  0  0  0  0  0  0  0  0  0
   -0.1220    2.1023   -0.5053 C   0  0  0  0  0  0  0  0  0  0  0  0
   -3.0174   -2.0103   -0.6456 C   0  0  0  0  0  0  0  0  0  0  0  0
   -3.6208   -0.8593   -1.1262 C   0  0  0  0  0  0  0  0  0  0  0  0
    2.5640    0.1648   -1.3356 H   0  0  0  0  0  0  0  0  0  0  0  0
    2.7296    1.0036    1.0148 H   0  0  0  0  0  0  0  0  0  0  0  0
    4.1707    0.0356    1.2786 H   0  0  0  0  0  0  0  0  0  0  0  0
    2.2089   -1.0409    2.2647 H   0  0  0  0  0  0  0  0  0  0  0  0
    2.8423   -2.0660    0.9830 H   0  0  0  0  0  0  0  0  0  0  0  0
    5.3101    1.3441   -0.6888 H   0  0  0  0  0  0  0  0  0  0  0  0
    3.8105    2.2626   -0.9074 H   0  0  0  0  0  0  0  0  0  0  0  0
    4.5026    1.3665   -2.2677 H   0  0  0  0  0  0  0  0  0  0  0  0
    5.1567   -1.3130   -0.6226 H   0  0  0  0  0  0  0  0  0  0  0  0
    3.6142   -2.0446   -1.1117 H   0  0  0  0  0  0  0  0  0  0  0  0
    4.5403   -1.0998   -2.2680 H   0  0  0  0  0  0  0  0  0  0  0  0
    0.9864   -1.6293   -0.3397 H   0  0  0  0  0  0  0  0  0  0  0  0
   -1.3460   -2.7616    0.4653 H   0  0  0  0  0  0  0  0  0  0  0  0
   -1.6101    3.6570    0.9145 H   0  0  0  0  0  0  0  0  0  0  0  0
   -2.5947    2.3768    1.6315 H   0  0  0  0  0  0  0  0  0  0  0  0
   -3.0665    3.0998    0.0763 H   0  0  0  0  0  0  0  0  0  0  0  0
   -0.1412    3.0709   -1.0176 H   0  0  0  0  0  0  0  0  0  0  0  0
    0.2524    1.3699   -1.2291 H   0  0  0  0  0  0  0  0  0  0  0  0
    0.5905    2.1812    0.3213 H   0  0  0  0  0  0  0  0  0  0  0  0
   -3.4533   -2.9867   -0.8236 H   0  0  0  0  0  0  0  0  0  0  0  0
   -4.5445   -0.9117   -1.6931 H   0  0  0  0  0  0  0  0  0  0  0  0
  1 10  2  0  0  0  0
  2  7  1  0  0  0  0
  2 10  1  0  0  0  0
  2 29  1  0  0  0  0
  3 12  1  0  0  0  0
  3 14  1  0  0  0  0
  3 15  1  0  0  0  0
  4 12  1  0  0  0  0
  4 17  2  0  0  0  0
  5  6  1  0  0  0  0
  5  8  1  0  0  0  0
  5  9  1  0  0  0  0
  5 18  1  0  0  0  0
  6  7  1  0  0  0  0
  6 19  1  0  0  0  0
  6 20  1  0  0  0  0
  7 21  1  0  0  0  0
  7 22  1  0  0  0  0
  8 23  1  0  0  0  0
  8 24  1  0  0  0  0
  8 25  1  0  0  0  0
  9 26  1  0  0  0  0
  9 27  1  0  0  0  0
  9 28  1  0  0  0  0
 10 11  1  0  0  0  0
 11 12  2  0  0  0  0
 11 13  1  0  0  0  0
 13 16  2  0  0  0  0
 13 30  1  0  0  0  0
 14 31  1  0  0  0  0
 14 32  1  0  0  0  0
 14 33  1  0  0  0  0
 15 34  1  0  0  0  0
 15 35  1  0  0  0  0
 15 36  1  0  0  0  0
 16 17  1  0  0  0  0
 16 37  1  0  0  0  0
 17 38  1  0  0  0  0
M  END
>  <PUBCHEM_COMPOUND_CID>
47188131

>  <PUBCHEM_CONFORMER_RMSD>
0.8

>  <PUBCHEM_CONFORMER_DIVERSEORDER>
1
27
2
18
17
23
9
20
19
25
26
5
29
8
28
30
22
4
21
14
31
6
16
13
3
24
15
10
11
7
12

>  <PUBCHEM_MMFF94_PARTIAL_CHARGES>
17
1 -0.57
10 0.54
11 0.09
12 0.41
13 -0.15
14 0.37
15 0.37
16 -0.15
17 0.16
2 -0.73
29 0.37
3 -0.84
30 0.15
37 0.15
38 0.15
4 -0.62
7 0.3

>  <PUBCHEM_EFFECTIVE_ROTOR_COUNT>
6

>  <PUBCHEM_PHARMACOPHORE_FEATURES>
6
1 1 acceptor
1 2 donor
1 3 cation
1 4 acceptor
3 5 8 9 hydrophobe
6 4 11 12 13 16 17 rings

>  <PUBCHEM_HEAVY_ATOM_COUNT>
17

>  <PUBCHEM_ATOM_DEF_STEREO_COUNT>
0

>  <PUBCHEM_ATOM_UDEF_STEREO_COUNT>
0

>  <PUBCHEM_BOND_DEF_STEREO_COUNT>
0

>  <PUBCHEM_BOND_UDEF_STEREO_COUNT>
0

>  <PUBCHEM_ISOTOPIC_ATOM_COUNT>
0

>  <PUBCHEM_COMPONENT_COUNT>
1

>  <PUBCHEM_CACTVS_TAUTO_COUNT>
2

>  <PUBCHEM_CONFORMER_ID>
02D008A300000001

>  <PUBCHEM_MMFF94_ENERGY>
56.9938

>  <PUBCHEM_FEATURE_SELFOVERLAP>
30.446

>  <PUBCHEM_SHAPE_FINGERPRINT>
10465860 71 18339073895180451031
10498660 4 18334292093605135220
12173636 292 18126555730935791685
12491281 212 18261396581232986392
13296908 3 16487246660589384658
14123260 362 17167874053697473894
14790565 3 18265894653923950661
16945 1 18271229552649225475
17959699 21 17386270018231255461
18186145 218 16009022861354615874
18219364 16 15430332333908525910
192875 21 17313368016696434224
19765921 60 16878211030837093707
20300324 65 18410013256181542100
20361792 2 14764623101776333690
22094290 60 18273213101379267743
22169311 14 10953453051233298198
22620623 9 17917987253033729861
22926399 37 17748824145993817391
23557571 272 18201986717142366784
23559900 14 18343292648814526898
23598291 2 17972028146391451770
27216 239 13262693563729179974
2748010 2 18052227860435252891
3082319 5 18261107452872675290
312423 11 18114461137384765330
4028521 119 17967813842844069772
474 4 16877941650746777086
5262128 65 18339099162905713436
59027123 10 18338249180493498646
6786 2 15977279818763441168
6992083 37 17106189028811996450
7364860 26 17764287837047186921
7615 1 18041548140648790002
84936 31 16770397456087318520

>  <PUBCHEM_SHAPE_MULTIPOLES>
329.04
7.54
2.41
1.42
6.58
1.27
0.31
-1.08
-3.75
-1.68
-0.07
0.57
-0.09
-0.84

>  <PUBCHEM_SHAPE_SELFOVERLAP>
659.319

>  <PUBCHEM_SHAPE_VOLUME>
194.3

>  <PUBCHEM_COORDINATE_TYPE>
2
5
10

$$$$
