47231550
 OpenBabel01182520543D

 37 38  0  0  0  0  0  0  0  0999 V2000
    0.8786   -0.6970   -1.5904 O   0  0  0  0  0  0  0  0  0  0  0  0
   -0.6253    1.2442    0.0975 N   0  0  0  0  0  0  0  0  0  0  0  0
   -2.7776    0.3676    0.4825 N   0  0  0  0  0  0  0  0  0  0  0  0
    1.1488   -2.1841    0.1682 N   0  0  0  0  0  0  0  0  0  0  0  0
    1.0519    3.5927    0.0792 C   0  0  0  0  0  0  0  0  0  0  0  0
    0.2932    3.1493   -1.1658 C   0  0  0  0  0  0  0  0  0  0  0  0
    1.3824    2.3871    0.9505 C   0  0  0  0  0  0  0  0  0  0  0  0
   -0.9606    2.3566   -0.8028 C   0  0  0  0  0  0  0  0  0  0  0  0
    0.1290    1.5898    1.3079 C   0  0  0  0  0  0  0  0  0  0  0  0
   -1.4946    0.1467    0.1182 C   0  0  0  0  0  0  0  0  0  0  0  0
   -0.9905   -1.0955   -0.2319 C   0  0  0  0  0  0  0  0  0  0  0  0
   -1.8591   -2.1810   -0.2064 C   0  0  0  0  0  0  0  0  0  0  0  0
    0.3986   -1.3027   -0.6172 C   0  0  0  0  0  0  0  0  0  0  0  0
   -3.5922   -0.7111    0.4955 C   0  0  0  0  0  0  0  0  0  0  0  0
   -3.1864   -1.9937    0.1631 C   0  0  0  0  0  0  0  0  0  0  0  0
    2.5440   -2.4755   -0.0713 C   0  0  0  0  0  0  0  0  0  0  0  0
    3.3829   -1.5067    0.6936 C   0  0  0  0  0  0  0  0  0  0  0  0
    4.2768   -0.6867    0.1295 C   0  0  0  0  0  0  0  0  0  0  0  0
    1.9748    4.1071   -0.2105 H   0  0  0  0  0  0  0  0  0  0  0  0
    0.4463    4.3080    0.6487 H   0  0  0  0  0  0  0  0  0  0  0  0
    0.0173    4.0238   -1.7655 H   0  0  0  0  0  0  0  0  0  0  0  0
    0.9504    2.5272   -1.7866 H   0  0  0  0  0  0  0  0  0  0  0  0
    2.0844    1.7375    0.4131 H   0  0  0  0  0  0  0  0  0  0  0  0
    1.8856    2.7154    1.8667 H   0  0  0  0  0  0  0  0  0  0  0  0
   -1.6959    3.0116   -0.3192 H   0  0  0  0  0  0  0  0  0  0  0  0
   -1.4131    1.9781   -1.7278 H   0  0  0  0  0  0  0  0  0  0  0  0
    0.4314    0.6834    1.8463 H   0  0  0  0  0  0  0  0  0  0  0  0
   -0.5112    2.1721    1.9819 H   0  0  0  0  0  0  0  0  0  0  0  0
   -1.5188   -3.1776   -0.4753 H   0  0  0  0  0  0  0  0  0  0  0  0
   -4.6172   -0.5119    0.7903 H   0  0  0  0  0  0  0  0  0  0  0  0
   -3.8817   -2.8249    0.1892 H   0  0  0  0  0  0  0  0  0  0  0  0
    0.7052   -2.6285    0.9672 H   0  0  0  0  0  0  0  0  0  0  0  0
    2.7438   -2.4365   -1.1473 H   0  0  0  0  0  0  0  0  0  0  0  0
    2.7346   -3.4941    0.2805 H   0  0  0  0  0  0  0  0  0  0  0  0
    3.2647   -1.4802    1.7741 H   0  0  0  0  0  0  0  0  0  0  0  0
    4.8612   -0.0075    0.7405 H   0  0  0  0  0  0  0  0  0  0  0  0
    4.4390   -0.6754   -0.9426 H   0  0  0  0  0  0  0  0  0  0  0  0
  1 13  2  0  0  0  0
  2  8  1  0  0  0  0
  2  9  1  0  0  0  0
  2 10  1  0  0  0  0
  3 10  1  0  0  0  0
  3 14  2  0  0  0  0
  4 13  1  0  0  0  0
  4 16  1  0  0  0  0
  4 32  1  0  0  0  0
  5  6  1  0  0  0  0
  5  7  1  0  0  0  0
  5 19  1  0  0  0  0
  5 20  1  0  0  0  0
  6  8  1  0  0  0  0
  6 21  1  0  0  0  0
  6 22  1  0  0  0  0
  7  9  1  0  0  0  0
  7 23  1  0  0  0  0
  7 24  1  0  0  0  0
  8 25  1  0  0  0  0
  8 26  1  0  0  0  0
  9 27  1  0  0  0  0
  9 28  1  0  0  0  0
 10 11  2  0  0  0  0
 11 12  1  0  0  0  0
 11 13  1  0  0  0  0
 12 15  2  0  0  0  0
 12 29  1  0  0  0  0
 14 15  1  0  0  0  0
 14 30  1  0  0  0  0
 15 31  1  0  0  0  0
 16 17  1  0  0  0  0
 16 33  1  0  0  0  0
 16 34  1  0  0  0  0
 17 18  2  0  0  0  0
 17 35  1  0  0  0  0
 18 36  1  0  0  0  0
 18 37  1  0  0  0  0
M  END
>  <PUBCHEM_COMPOUND_CID>
47231550

>  <PUBCHEM_CONFORMER_RMSD>
0.8

>  <PUBCHEM_CONFORMER_DIVERSEORDER>
1
20
21
5
16
9
6
3
13
7
18
4
14
2
17
8
12
10
11
15
19

>  <PUBCHEM_MMFF94_PARTIAL_CHARGES>
22
1 -0.57
10 0.41
11 0.09
12 -0.15
13 0.54
14 0.16
15 -0.15
16 0.44
17 -0.29
18 -0.3
2 -0.84
29 0.15
3 -0.62
30 0.15
31 0.15
32 0.37
35 0.15
36 0.15
37 0.15
4 -0.73
8 0.37
9 0.37

>  <PUBCHEM_EFFECTIVE_ROTOR_COUNT>
6.2

>  <PUBCHEM_PHARMACOPHORE_FEATURES>
7
1 1 acceptor
1 18 hydrophobe
1 2 cation
1 3 acceptor
1 4 donor
6 2 5 6 7 8 9 rings
6 3 10 11 12 14 15 rings

>  <PUBCHEM_HEAVY_ATOM_COUNT>
18

>  <PUBCHEM_ATOM_DEF_STEREO_COUNT>
0

>  <PUBCHEM_ATOM_UDEF_STEREO_COUNT>
0

>  <PUBCHEM_BOND_DEF_STEREO_COUNT>
0

>  <PUBCHEM_BOND_UDEF_STEREO_COUNT>
0

>  <PUBCHEM_ISOTOPIC_ATOM_COUNT>
0

>  <PUBCHEM_COMPONENT_COUNT>
1

>  <PUBCHEM_CACTVS_TAUTO_COUNT>
2

>  <PUBCHEM_CONFORMER_ID>
02D0B23E00000001

>  <PUBCHEM_MMFF94_ENERGY>
50.486

>  <PUBCHEM_FEATURE_SELFOVERLAP>
35.521

>  <PUBCHEM_SHAPE_FINGERPRINT>
11578080 2 17750495412410888071
12035758 1 18265325115316338481
12592029 89 17760658357400450803
13027679 85 18341326708532772937
13132413 78 18412266133551944742
13140716 1 18268723856313641011
14022349 108 18195817481573197811
14181834 199 18129657629547301871
14787075 74 18187089498390750706
15279307 12 16747604726056663320
16945 1 18341896320275531641
19591789 44 16608015157895097842
20510252 161 17979355261450000890
20600515 1 18201168645751897363
20645476 183 16820238468566746885
20905425 154 17696766827447698119
21524375 3 17407690974367697159
2297311 6 18270413685268459142
23366157 5 18044376256285620903
23419403 2 18115565141568951517
23557571 272 18127699227502896990
25147074 1 17915188030180533707
2748010 2 18198042717003542632
305870 269 17907017627312842903
3187 122 18118375450646114720
43471831 8 17618502524746770259
69474 34 18412824668569058387
7364860 26 18196372734939982227
81228 2 17909010728324757315
90316 7 18265053531031716002
90525 40 17110717320132361561

>  <PUBCHEM_SHAPE_MULTIPOLES>
349.62
5.18
4.29
1.06
0.68
2.93
-0.1
-4.18
1.11
2.3
-0.44
0.19
0.44
0.07

>  <PUBCHEM_SHAPE_SELFOVERLAP>
721.544

>  <PUBCHEM_SHAPE_VOLUME>
198.4

>  <PUBCHEM_COORDINATE_TYPE>
2
5
10

$$$$
