47354874
 OpenBabel01182520543D

 42 42  0  0  0  0  0  0  0  0999 V2000
   -2.9536    0.0884    1.5908 O   0  0  0  0  0  0  0  0  0  0  0  0
    0.0243   -2.5546   -1.3022 O   0  0  0  0  0  0  0  0  0  0  0  0
   -4.5514    0.2612   -0.0859 N   0  0  0  0  0  0  0  0  0  0  0  0
   -0.8106   -1.6770    0.6761 N   0  0  0  0  0  0  0  0  0  0  0  0
    4.8265    1.2685    0.1514 N   0  0  0  0  0  0  0  0  0  0  0  0
    3.7089   -0.6691   -0.6693 N   0  0  0  0  0  0  0  0  0  0  0  0
   -3.1670   -1.7050   -0.0249 C   0  0  0  0  0  0  0  0  0  0  0  0
   -2.0365   -2.4292    0.6931 C   0  0  0  0  0  0  0  0  0  0  0  0
   -5.0877    1.5440    0.3065 C   0  0  0  0  0  0  0  0  0  0  0  0
   -4.3639    2.7054   -0.3644 C   0  0  0  0  0  0  0  0  0  0  0  0
   -3.5184   -0.3632    0.5984 C   0  0  0  0  0  0  0  0  0  0  0  0
    1.3584   -0.9765   -0.1940 C   0  0  0  0  0  0  0  0  0  0  0  0
    0.1329   -1.8040   -0.3361 C   0  0  0  0  0  0  0  0  0  0  0  0
   -4.4699    2.6666   -1.8823 C   0  0  0  0  0  0  0  0  0  0  0  0
    3.6494    0.4899    0.0244 C   0  0  0  0  0  0  0  0  0  0  0  0
    1.3369    0.2213    0.5118 C   0  0  0  0  0  0  0  0  0  0  0  0
    2.5001    0.9745    0.6278 C   0  0  0  0  0  0  0  0  0  0  0  0
    2.5588   -1.3738   -0.7607 C   0  0  0  0  0  0  0  0  0  0  0  0
    6.0639    0.8191   -0.4467 C   0  0  0  0  0  0  0  0  0  0  0  0
    4.7990    2.5135    0.8863 C   0  0  0  0  0  0  0  0  0  0  0  0
   -2.8954   -1.5305   -1.0732 H   0  0  0  0  0  0  0  0  0  0  0  0
   -4.0656   -2.3330   -0.0103 H   0  0  0  0  0  0  0  0  0  0  0  0
   -1.8673   -3.4058    0.2269 H   0  0  0  0  0  0  0  0  0  0  0  0
   -2.2956   -2.5976    1.7440 H   0  0  0  0  0  0  0  0  0  0  0  0
   -5.0148    1.6436    1.3949 H   0  0  0  0  0  0  0  0  0  0  0  0
   -6.1495    1.5476    0.0384 H   0  0  0  0  0  0  0  0  0  0  0  0
   -4.7897    3.6478   -0.0013 H   0  0  0  0  0  0  0  0  0  0  0  0
   -3.3044    2.6996   -0.0819 H   0  0  0  0  0  0  0  0  0  0  0  0
   -4.9539   -0.1925   -0.9009 H   0  0  0  0  0  0  0  0  0  0  0  0
   -0.6339   -1.0746    1.4728 H   0  0  0  0  0  0  0  0  0  0  0  0
   -3.9787    1.7805   -2.2962 H   0  0  0  0  0  0  0  0  0  0  0  0
   -5.5167    2.6627   -2.2023 H   0  0  0  0  0  0  0  0  0  0  0  0
   -3.9868    3.5484   -2.3152 H   0  0  0  0  0  0  0  0  0  0  0  0
    0.4289    0.6134    0.9600 H   0  0  0  0  0  0  0  0  0  0  0  0
    2.4382    1.9039    1.1806 H   0  0  0  0  0  0  0  0  0  0  0  0
    2.6460   -2.2996   -1.3212 H   0  0  0  0  0  0  0  0  0  0  0  0
    6.8860    1.5213   -0.2715 H   0  0  0  0  0  0  0  0  0  0  0  0
    5.9543    0.7136   -1.5317 H   0  0  0  0  0  0  0  0  0  0  0  0
    6.3680   -0.1467   -0.0285 H   0  0  0  0  0  0  0  0  0  0  0  0
    5.7834    2.9956    0.8937 H   0  0  0  0  0  0  0  0  0  0  0  0
    4.5304    2.3538    1.9367 H   0  0  0  0  0  0  0  0  0  0  0  0
    4.1109    3.2341    0.4299 H   0  0  0  0  0  0  0  0  0  0  0  0
  1 11  2  0  0  0  0
  2 13  2  0  0  0  0
  3  9  1  0  0  0  0
  3 11  1  0  0  0  0
  3 29  1  0  0  0  0
  4  8  1  0  0  0  0
  4 13  1  0  0  0  0
  4 30  1  0  0  0  0
  5 15  1  0  0  0  0
  5 19  1  0  0  0  0
  5 20  1  0  0  0  0
  6 15  2  0  0  0  0
  6 18  1  0  0  0  0
  7  8  1  0  0  0  0
  7 11  1  0  0  0  0
  7 21  1  0  0  0  0
  7 22  1  0  0  0  0
  8 23  1  0  0  0  0
  8 24  1  0  0  0  0
  9 10  1  0  0  0  0
  9 25  1  0  0  0  0
  9 26  1  0  0  0  0
 10 14  1  0  0  0  0
 10 27  1  0  0  0  0
 10 28  1  0  0  0  0
 12 13  1  0  0  0  0
 12 16  1  0  0  0  0
 12 18  2  0  0  0  0
 14 31  1  0  0  0  0
 14 32  1  0  0  0  0
 14 33  1  0  0  0  0
 15 17  1  0  0  0  0
 16 17  2  0  0  0  0
 16 34  1  0  0  0  0
 17 35  1  0  0  0  0
 18 36  1  0  0  0  0
 19 37  1  0  0  0  0
 19 38  1  0  0  0  0
 19 39  1  0  0  0  0
 20 40  1  0  0  0  0
 20 41  1  0  0  0  0
 20 42  1  0  0  0  0
M  END
>  <PUBCHEM_COMPOUND_CID>
47354874

>  <PUBCHEM_CONFORMER_RMSD>
0.8

>  <PUBCHEM_CONFORMER_DIVERSEORDER>
2
173
71
7
149
61
103
129
58
41
135
8
84
63
153
16
125
91
87
115
156
151
94
119
189
109
29
100
150
90
19
134
145
120
186
126
97
123
34
148
82
88
53
15
40
25
164
59
80
110
191
75
184
182
122
166
37
26
62
138
143
48
160
158
44
112
64
99
35
86
168
162
50
81
177
131
20
69
68
193
43
32
181
108
36
27
194
140
33
65
147
45
4
85
128
10
96
192
76
190
137
28
136
132
22
107
175
46
163
56
102
183
142
73
51
83
178
31
111
74
114
17
167
95
144
38
23
124
121
188
117
174
116
141
157
24
42
165
155
49
70
161
93
18
12
139
133
57
30
55
101
104
78
67
159
60
185
21
169
72
179
13
89
152
106
171
154
130
170
3
187
14
5
180
113
98
127
54
11
172
1
92
77
39
79
118
105
47
9
52
66
176
6
146

>  <PUBCHEM_MMFF94_PARTIAL_CHARGES>
23
1 -0.57
11 0.57
12 0.09
13 0.54
15 0.41
16 -0.15
17 -0.15
18 0.16
19 0.37
2 -0.57
20 0.37
29 0.37
3 -0.73
30 0.37
34 0.15
35 0.15
36 0.15
4 -0.73
5 -0.84
6 -0.62
7 0.06
8 0.3
9 0.3

>  <PUBCHEM_EFFECTIVE_ROTOR_COUNT>
9

>  <PUBCHEM_PHARMACOPHORE_FEATURES>
7
1 1 acceptor
1 14 hydrophobe
1 2 acceptor
1 3 donor
1 4 donor
3 5 6 15 cation
6 6 12 15 16 17 18 rings

>  <PUBCHEM_HEAVY_ATOM_COUNT>
20

>  <PUBCHEM_ATOM_DEF_STEREO_COUNT>
0

>  <PUBCHEM_ATOM_UDEF_STEREO_COUNT>
0

>  <PUBCHEM_BOND_DEF_STEREO_COUNT>
0

>  <PUBCHEM_BOND_UDEF_STEREO_COUNT>
0

>  <PUBCHEM_ISOTOPIC_ATOM_COUNT>
0

>  <PUBCHEM_COMPONENT_COUNT>
1

>  <PUBCHEM_CACTVS_TAUTO_COUNT>
4

>  <PUBCHEM_CONFORMER_ID>
02D293FA00000002

>  <PUBCHEM_MMFF94_ENERGY>
45.8529

>  <PUBCHEM_FEATURE_SELFOVERLAP>
35.521

>  <PUBCHEM_SHAPE_FINGERPRINT>
10498660 4 18341614802264947041
11552529 35 16227470674432856379
12107183 9 18116137879916942442
12403259 415 18339656567845397507
12596602 18 15792025510044723121
12769317 202 18272363140178340705
12969540 114 17704067412878225772
13103583 49 12468643768668344941
13402501 40 18409729539269404221
14123255 352 18410573981141424441
14251764 75 18053105017681231353
14950920 106 14346092918442793885
15537594 2 13039194706107309045
1768 210 18268691910173073437
17834072 32 18410013204552445617
193927 3 9367344859723550329
20281389 69 18408604794713539032
20645477 56 18340495538314854339
21054139 6 12391519676747813100
21279426 13 18271254841859912398
21315764 268 18268708483971593192
21401589 2 18188216416605412297
21859007 373 18343011204267123648
23402655 69 17917715690403642747
23559900 14 18200880556879498338
2838139 119 18413101766731533532
314194 84 11098150988455246059
4028521 119 18342460309832662779
56633871 153 8645899210760299721
59682541 35 18261126179932068721
7808743 9 18334574642455610025

>  <PUBCHEM_SHAPE_MULTIPOLES>
379.93
13.13
3.21
1.17
3.21
0.6
-0.19
11.55
-0.72
-2.61
-0.63
-0.73
0.27
2.25

>  <PUBCHEM_SHAPE_SELFOVERLAP>
761.281

>  <PUBCHEM_SHAPE_VOLUME>
222.1

>  <PUBCHEM_COORDINATE_TYPE>
2
5
10

$$$$
