4737814
 OpenBabel01182520543D

 24 26  0  0  0  0  0  0  0  0999 V2000
   -0.0324    2.4024   -0.0022 O   0  0  0  0  0  0  0  0  0  0  0  0
   -1.0820    0.2868    0.0005 N   0  0  0  0  0  0  0  0  0  0  0  0
    0.3213   -1.6587    0.0000 N   0  0  0  0  0  0  0  0  0  0  0  0
    2.6388   -1.4849   -0.0007 N   0  0  0  0  0  0  0  0  0  0  0  0
   -2.6935    2.1563    0.0009 N   0  0  0  0  0  0  0  0  0  0  0  0
   -0.8537   -1.1024    0.0002 C   0  0  0  0  0  0  0  0  0  0  0  0
    1.3498    0.5444    0.0006 C   0  0  0  0  0  0  0  0  0  0  0  0
    0.0161    1.1749    0.0001 C   0  0  0  0  0  0  0  0  0  0  0  0
   -2.4046    0.8093    0.0003 C   0  0  0  0  0  0  0  0  0  0  0  0
    1.4496   -0.8367   -0.0001 C   0  0  0  0  0  0  0  0  0  0  0  0
   -2.0364   -2.0022    0.0003 C   0  0  0  0  0  0  0  0  0  0  0  0
   -3.4416   -0.0547   -0.0005 C   0  0  0  0  0  0  0  0  0  0  0  0
    2.5201    1.3039    0.0009 C   0  0  0  0  0  0  0  0  0  0  0  0
   -3.2591   -1.4743   -0.0003 C   0  0  0  0  0  0  0  0  0  0  0  0
    3.7509    0.6597    0.0005 C   0  0  0  0  0  0  0  0  0  0  0  0
    3.7565   -0.7239   -0.0004 C   0  0  0  0  0  0  0  0  0  0  0  0
   -1.8792   -3.0744    0.0006 H   0  0  0  0  0  0  0  0  0  0  0  0
   -4.4691    0.2989   -0.0008 H   0  0  0  0  0  0  0  0  0  0  0  0
    2.4923    2.3896    0.0015 H   0  0  0  0  0  0  0  0  0  0  0  0
   -4.1391   -2.1074   -0.0003 H   0  0  0  0  0  0  0  0  0  0  0  0
    4.6767    1.2234    0.0007 H   0  0  0  0  0  0  0  0  0  0  0  0
   -1.9425    2.8331    0.0020 H   0  0  0  0  0  0  0  0  0  0  0  0
   -3.6558    2.4714    0.0009 H   0  0  0  0  0  0  0  0  0  0  0  0
    4.6904   -1.2760   -0.0009 H   0  0  0  0  0  0  0  0  0  0  0  0
  1  8  2  0  0  0  0
  2  6  1  0  0  0  0
  2  8  1  0  0  0  0
  2  9  1  0  0  0  0
  3  6  2  0  0  0  0
  3 10  1  0  0  0  0
  4 10  1  0  0  0  0
  4 16  2  0  0  0  0
  5  9  1  0  0  0  0
  5 22  1  0  0  0  0
  5 23  1  0  0  0  0
  6 11  1  0  0  0  0
  7  8  1  0  0  0  0
  7 10  2  0  0  0  0
  7 13  1  0  0  0  0
  9 12  2  0  0  0  0
 11 14  2  0  0  0  0
 11 17  1  0  0  0  0
 12 14  1  0  0  0  0
 12 18  1  0  0  0  0
 13 15  2  0  0  0  0
 13 19  1  0  0  0  0
 14 20  1  0  0  0  0
 15 16  1  0  0  0  0
 15 21  1  0  0  0  0
 16 24  1  0  0  0  0
M  END
>  <PUBCHEM_COMPOUND_CID>
4737814

>  <PUBCHEM_CONFORMER_RMSD>
0.4

>  <PUBCHEM_CONFORMER_DIVERSEORDER>
1

>  <PUBCHEM_MMFF94_PARTIAL_CHARGES>
24
1 -0.57
10 0.49
11 -0.14
12 -0.15
13 -0.15
14 -0.15
15 -0.15
16 0.16
17 0.15
18 0.15
19 0.15
2 -0.23
20 0.15
21 0.15
22 0.4
23 0.4
24 0.15
3 -0.63
4 -0.62
5 -0.9
6 0.5
7 0.09
8 0.54
9 0.21

>  <PUBCHEM_EFFECTIVE_ROTOR_COUNT>
0

>  <PUBCHEM_PHARMACOPHORE_FEATURES>
7
1 1 acceptor
1 4 acceptor
1 5 cation
1 5 donor
6 2 3 6 7 8 10 rings
6 2 6 9 11 12 14 rings
6 4 7 10 13 15 16 rings

>  <PUBCHEM_HEAVY_ATOM_COUNT>
16

>  <PUBCHEM_ATOM_DEF_STEREO_COUNT>
0

>  <PUBCHEM_ATOM_UDEF_STEREO_COUNT>
0

>  <PUBCHEM_BOND_DEF_STEREO_COUNT>
0

>  <PUBCHEM_BOND_UDEF_STEREO_COUNT>
0

>  <PUBCHEM_ISOTOPIC_ATOM_COUNT>
0

>  <PUBCHEM_COMPONENT_COUNT>
1

>  <PUBCHEM_CACTVS_TAUTO_COUNT>
6

>  <PUBCHEM_CONFORMER_ID>
00484B1600000001

>  <PUBCHEM_MMFF94_ENERGY>
52.7213

>  <PUBCHEM_FEATURE_SELFOVERLAP>
35.586

>  <PUBCHEM_SHAPE_FINGERPRINT>
10608611 8 18412259553825759400
10967382 1 18338798892603306822
11132069 177 18411412921282216520
12032990 46 18411142458575506254
12382932 28 18412826854433144256
13140716 1 18338797814571764738
13221675 6 18410574028133019475
14144814 61 18410856576861967354
14325111 11 18410575084821483872
14790565 3 15378828297692597475
15196674 1 18410573998057510502
15442244 35 18265894666412674386
15536298 74 18343021116565696166
16945 1 18194683897827314055
17804303 29 18341618139195878060
18186145 218 18272660004217954020
193761 8 17473825022156160581
19591789 44 15965420297557039214
200 152 18060129986206176687
20510252 161 18343866614815802361
21029758 11 18342730849796452225
21267235 1 18410302418754450354
21501502 16 18410293609728592262
2334 1 18410855485913822310
23402539 116 18343010116616647623
23463225 33 18408885148434597462
23559900 14 18270678646348701622
238 59 16092870269532685989
2748010 2 18411699889395543678
3312278 4 18411984650112016968
335352 9 18122624942437818974
5104073 3 18411135827499163746
528886 8 18411694387584648530
53812653 166 18271522108514985184
69090 78 18343579651113655623
7364860 26 18053100910842715432
8809292 202 18188775066679573363
9709674 26 18412268345719091270

>  <PUBCHEM_SHAPE_MULTIPOLES>
303.48
6.25
2.25
0.59
1.54
0.45
0
-0.64
0
-0.83
0
0
-0.01
0

>  <PUBCHEM_SHAPE_SELFOVERLAP>
680.695

>  <PUBCHEM_SHAPE_VOLUME>
156.7

>  <PUBCHEM_COORDINATE_TYPE>
2
5
10

$$$$
