47390719
 OpenBabel01182520543D

 30 31  0  0  0  0  0  0  0  0999 V2000
   -2.8347   -1.5763   -0.5832 O   0  0  0  0  0  0  0  0  0  0  0  0
    2.9707    0.8485    0.1748 N   0  0  0  0  0  0  0  0  0  0  0  0
    0.7348    1.5161   -0.3068 N   0  0  0  0  0  0  0  0  0  0  0  0
   -3.3611    0.6308   -0.1054 N   0  0  0  0  0  0  0  0  0  0  0  0
    3.9881   -0.1195    0.5582 C   0  0  0  0  0  0  0  0  0  0  0  0
    4.6213   -1.0276   -0.4548 C   0  0  0  0  0  0  0  0  0  0  0  0
    5.4275    0.0687    0.1776 C   0  0  0  0  0  0  0  0  0  0  0  0
    1.5945    0.5351    0.0487 C   0  0  0  0  0  0  0  0  0  0  0  0
    1.2162   -0.7735    0.3017 C   0  0  0  0  0  0  0  0  0  0  0  0
   -0.1311   -1.0964    0.1821 C   0  0  0  0  0  0  0  0  0  0  0  0
   -1.0459   -0.1144   -0.1816 C   0  0  0  0  0  0  0  0  0  0  0  0
   -0.5664    1.1648   -0.4130 C   0  0  0  0  0  0  0  0  0  0  0  0
   -2.4594   -0.4201   -0.3148 C   0  0  0  0  0  0  0  0  0  0  0  0
   -4.7967    0.4806   -0.1788 C   0  0  0  0  0  0  0  0  0  0  0  0
   -5.3577   -0.1168    1.0950 C   0  0  0  0  0  0  0  0  0  0  0  0
    3.8277   -0.5100    1.5590 H   0  0  0  0  0  0  0  0  0  0  0  0
    4.8308   -2.0471   -0.1556 H   0  0  0  0  0  0  0  0  0  0  0  0
    4.3464   -0.9123   -1.4960 H   0  0  0  0  0  0  0  0  0  0  0  0
    5.6913    0.9190   -0.4392 H   0  0  0  0  0  0  0  0  0  0  0  0
    6.1831   -0.2138    0.9002 H   0  0  0  0  0  0  0  0  0  0  0  0
    3.2099    1.8162   -0.0122 H   0  0  0  0  0  0  0  0  0  0  0  0
    1.9078   -1.5577    0.5871 H   0  0  0  0  0  0  0  0  0  0  0  0
   -0.4501   -2.1163    0.3797 H   0  0  0  0  0  0  0  0  0  0  0  0
   -1.2050    1.9836   -0.7277 H   0  0  0  0  0  0  0  0  0  0  0  0
   -5.0406   -0.1592   -1.0333 H   0  0  0  0  0  0  0  0  0  0  0  0
   -5.2234    1.4727   -0.3558 H   0  0  0  0  0  0  0  0  0  0  0  0
   -3.0185    1.5437    0.1747 H   0  0  0  0  0  0  0  0  0  0  0  0
   -6.4468   -0.2011    1.0294 H   0  0  0  0  0  0  0  0  0  0  0  0
   -5.1137    0.5082    1.9606 H   0  0  0  0  0  0  0  0  0  0  0  0
   -4.9492   -1.1154    1.2810 H   0  0  0  0  0  0  0  0  0  0  0  0
  1 13  2  0  0  0  0
  2  5  1  0  0  0  0
  2  8  1  0  0  0  0
  2 21  1  0  0  0  0
  3  8  2  0  0  0  0
  3 12  1  0  0  0  0
  4 13  1  0  0  0  0
  4 14  1  0  0  0  0
  4 27  1  0  0  0  0
  5  6  1  0  0  0  0
  5  7  1  0  0  0  0
  5 16  1  0  0  0  0
  6  7  1  0  0  0  0
  6 17  1  0  0  0  0
  6 18  1  0  0  0  0
  7 19  1  0  0  0  0
  7 20  1  0  0  0  0
  8  9  1  0  0  0  0
  9 10  2  0  0  0  0
  9 22  1  0  0  0  0
 10 11  1  0  0  0  0
 10 23  1  0  0  0  0
 11 12  2  0  0  0  0
 11 13  1  0  0  0  0
 12 24  1  0  0  0  0
 14 15  1  0  0  0  0
 14 25  1  0  0  0  0
 14 26  1  0  0  0  0
 15 28  1  0  0  0  0
 15 29  1  0  0  0  0
 15 30  1  0  0  0  0
M  END
>  <PUBCHEM_COMPOUND_CID>
47390719

>  <PUBCHEM_CONFORMER_RMSD>
0.6

>  <PUBCHEM_CONFORMER_DIVERSEORDER>
1
11
16
41
20
51
32
46
25
28
8
6
43
45
50
21
31
13
30
34
47
33
40
35
12
18
19
7
44
4
48
39
38
14
23
5
36
2
49
37
27
29
42
26
17
22
15
3
24
9
10

>  <PUBCHEM_MMFF94_PARTIAL_CHARGES>
24
1 -0.57
10 -0.15
11 0.09
12 0.16
13 0.54
14 0.3
16 0.1
17 0.1
18 0.1
19 0.1
2 -0.67
20 0.1
21 0.4
22 0.15
23 0.15
24 0.15
27 0.37
3 -0.62
4 -0.73
5 0.07
6 -0.2
7 -0.2
8 0.41
9 -0.15

>  <PUBCHEM_EFFECTIVE_ROTOR_COUNT>
5.6

>  <PUBCHEM_PHARMACOPHORE_FEATURES>
5
1 1 acceptor
1 2 donor
1 4 donor
3 2 3 8 cation
6 3 8 9 10 11 12 rings

>  <PUBCHEM_HEAVY_ATOM_COUNT>
15

>  <PUBCHEM_ATOM_DEF_STEREO_COUNT>
0

>  <PUBCHEM_ATOM_UDEF_STEREO_COUNT>
0

>  <PUBCHEM_BOND_DEF_STEREO_COUNT>
0

>  <PUBCHEM_BOND_UDEF_STEREO_COUNT>
0

>  <PUBCHEM_ISOTOPIC_ATOM_COUNT>
0

>  <PUBCHEM_COMPONENT_COUNT>
1

>  <PUBCHEM_CACTVS_TAUTO_COUNT>
7

>  <PUBCHEM_CONFORMER_ID>
02D31FFF00000001

>  <PUBCHEM_MMFF94_ENERGY>
36.1084

>  <PUBCHEM_FEATURE_SELFOVERLAP>
25.372

>  <PUBCHEM_SHAPE_FINGERPRINT>
11287383 113 15140967270241349812
11401426 45 18411976970799967558
117890 112 16056882420472711416
12032990 46 18408603690753897942
12119455 92 16774075163473311477
124424 183 16271926034220238955
12670546 56 16559034848587896506
13533116 47 16200157534890207422
13675066 3 18409165540984753473
13760787 5 18113898307489513356
13862211 1 18334287669467268155
14251718 22 13623534571024119275
15048467 5 17418373593014375192
17834076 25 16702303446985472987
18186145 218 17531517784835344700
19141452 34 18202561795624807734
19489759 90 15195287512603699283
200 152 17561077012201952086
20279233 1 15051738615907688453
20645477 70 17846219895911843390
21267235 1 18408329873334617450
21618674 57 17274823549530811499
22485316 2 18202559592749423406
23402539 116 15769771343269530281
23536379 177 16272210769108697639
23559900 14 18059850718942967504
42788 4 18410292505964260192
4463277 17 18334295366317694404
5104073 3 18340483494735660650
53655031 270 18410572864170443648
7495541 125 15575007198919632900

>  <PUBCHEM_SHAPE_MULTIPOLES>
287.88
11.41
1.26
0.78
0.01
0.01
0.08
0.8
1.74
0.01
-0.16
0.33
0.06
0.11

>  <PUBCHEM_SHAPE_SELFOVERLAP>
590.823

>  <PUBCHEM_SHAPE_VOLUME>
165.6

>  <PUBCHEM_COORDINATE_TYPE>
2
5
10

$$$$
