506623
 OpenBabel01182520543D

 17 17  0  0  0  0  0  0  0  0999 V2000
   -2.3503    0.2808   -1.1191 O   0  0  0  0  0  0  0  0  0  0  0  0
    1.7980   -1.0160    0.0209 N   0  0  0  0  0  0  0  0  0  0  0  0
   -0.2766   -2.1632   -0.0034 N   0  0  0  0  0  0  0  0  0  0  0  0
   -2.3867    0.3172    1.1735 N   0  0  0  0  0  0  0  0  0  0  0  0
   -0.2658    0.2425   -0.0234 C   0  0  0  0  0  0  0  0  0  0  0  0
    0.4481   -0.9448   -0.0017 C   0  0  0  0  0  0  0  0  0  0  0  0
    0.4517    1.4335   -0.0219 C   0  0  0  0  0  0  0  0  0  0  0  0
    1.8417    1.4012    0.0010 C   0  0  0  0  0  0  0  0  0  0  0  0
   -1.7214    0.2868   -0.0476 C   0  0  0  0  0  0  0  0  0  0  0  0
    2.4613    0.1621    0.0216 C   0  0  0  0  0  0  0  0  0  0  0  0
   -0.0602    2.3921   -0.0387 H   0  0  0  0  0  0  0  0  0  0  0  0
    2.4216    2.3169    0.0026 H   0  0  0  0  0  0  0  0  0  0  0  0
    3.5432    0.0825    0.0397 H   0  0  0  0  0  0  0  0  0  0  0  0
   -1.1874   -2.1859    0.4383 H   0  0  0  0  0  0  0  0  0  0  0  0
    0.2719   -3.0147    0.0083 H   0  0  0  0  0  0  0  0  0  0  0  0
   -1.8896    0.3146    2.0586 H   0  0  0  0  0  0  0  0  0  0  0  0
   -3.4001    0.3420    1.2152 H   0  0  0  0  0  0  0  0  0  0  0  0
  1  9  2  0  0  0  0
  2  6  1  0  0  0  0
  2 10  2  0  0  0  0
  3  6  1  0  0  0  0
  3 14  1  0  0  0  0
  3 15  1  0  0  0  0
  4  9  1  0  0  0  0
  4 16  1  0  0  0  0
  4 17  1  0  0  0  0
  5  6  2  0  0  0  0
  5  7  1  0  0  0  0
  5  9  1  0  0  0  0
  7  8  2  0  0  0  0
  7 11  1  0  0  0  0
  8 10  1  0  0  0  0
  8 12  1  0  0  0  0
 10 13  1  0  0  0  0
M  END
>  <PUBCHEM_COMPOUND_CID>
506623

>  <PUBCHEM_CONFORMER_RMSD>
0.4

>  <PUBCHEM_CONFORMER_DIVERSEORDER>
1
3
2
4

>  <PUBCHEM_MMFF94_PARTIAL_CHARGES>
17
1 -0.57
10 0.16
11 0.15
12 0.15
13 0.15
14 0.4
15 0.4
16 0.37
17 0.37
2 -0.62
3 -0.9
4 -0.8
5 0.09
6 0.41
7 -0.15
8 -0.15
9 0.54

>  <PUBCHEM_EFFECTIVE_ROTOR_COUNT>
1

>  <PUBCHEM_PHARMACOPHORE_FEATURES>
6
1 1 acceptor
1 2 acceptor
1 3 cation
1 3 donor
1 4 donor
6 2 5 6 7 8 10 rings

>  <PUBCHEM_HEAVY_ATOM_COUNT>
10

>  <PUBCHEM_ATOM_DEF_STEREO_COUNT>
0

>  <PUBCHEM_ATOM_UDEF_STEREO_COUNT>
0

>  <PUBCHEM_BOND_DEF_STEREO_COUNT>
0

>  <PUBCHEM_BOND_UDEF_STEREO_COUNT>
0

>  <PUBCHEM_ISOTOPIC_ATOM_COUNT>
0

>  <PUBCHEM_COMPONENT_COUNT>
1

>  <PUBCHEM_CACTVS_TAUTO_COUNT>
7

>  <PUBCHEM_CONFORMER_ID>
0007BAFF00000001

>  <PUBCHEM_MMFF94_ENERGY>
39.1164

>  <PUBCHEM_FEATURE_SELFOVERLAP>
30.446

>  <PUBCHEM_SHAPE_FINGERPRINT>
15310529 11 16877947156863221420
16945 1 18410573989810519244
18185500 45 18127686037341494719
21040471 1 18338515356316685148
23235685 24 18412831312772916128
2748010 2 18123191466094102636
29004967 10 18261117331007195400
5084963 1 18201708561674260901

>  <PUBCHEM_SHAPE_MULTIPOLES>
184.98
3.21
1.63
0.8
0.48
0.59
0.02
-0.62
0.07
-0.4
0
0.49
-0.1
-0.02

>  <PUBCHEM_SHAPE_SELFOVERLAP>
387.607

>  <PUBCHEM_SHAPE_VOLUME>
104.2

>  <PUBCHEM_COORDINATE_TYPE>
2
5
10

$$$$
