51076322
 OpenBabel01182520543D

 30 31  0  0  0  0  0  0  0  0999 V2000
    3.7081   -1.3628    0.4049 O   0  0  0  0  0  0  0  0  0  0  0  0
   -2.3903    0.0322   -0.0112 N   0  0  0  0  0  0  0  0  0  0  0  0
   -0.4378   -1.2642   -0.1721 N   0  0  0  0  0  0  0  0  0  0  0  0
    3.8886    0.8484   -0.2699 N   0  0  0  0  0  0  0  0  0  0  0  0
   -4.5605    0.9091   -0.2378 C   0  0  0  0  0  0  0  0  0  0  0  0
   -4.6615   -0.5603    0.1330 C   0  0  0  0  0  0  0  0  0  0  0  0
   -3.1365    1.2742    0.1750 C   0  0  0  0  0  0  0  0  0  0  0  0
   -3.2814   -1.1049   -0.2280 C   0  0  0  0  0  0  0  0  0  0  0  0
   -1.0150   -0.0557    0.0134 C   0  0  0  0  0  0  0  0  0  0  0  0
   -0.3083    1.1163    0.2294 C   0  0  0  0  0  0  0  0  0  0  0  0
    1.0801    1.0437    0.2569 C   0  0  0  0  0  0  0  0  0  0  0  0
    1.7103   -0.1817    0.0702 C   0  0  0  0  0  0  0  0  0  0  0  0
    0.9134   -1.2956   -0.1387 C   0  0  0  0  0  0  0  0  0  0  0  0
    3.1584   -0.2903    0.0934 C   0  0  0  0  0  0  0  0  0  0  0  0
    5.3325    0.8915   -0.3187 C   0  0  0  0  0  0  0  0  0  0  0  0
   -5.3123    1.5275    0.2604 H   0  0  0  0  0  0  0  0  0  0  0  0
   -4.6807    1.0287   -1.3214 H   0  0  0  0  0  0  0  0  0  0  0  0
   -5.4671   -1.0792   -0.3938 H   0  0  0  0  0  0  0  0  0  0  0  0
   -4.8349   -0.6617    1.2112 H   0  0  0  0  0  0  0  0  0  0  0  0
   -2.7805    2.0924   -0.4602 H   0  0  0  0  0  0  0  0  0  0  0  0
   -3.1063    1.5822    1.2264 H   0  0  0  0  0  0  0  0  0  0  0  0
   -3.0275   -1.9620    0.4047 H   0  0  0  0  0  0  0  0  0  0  0  0
   -3.2462   -1.4111   -1.2795 H   0  0  0  0  0  0  0  0  0  0  0  0
   -0.7672    2.0837    0.3956 H   0  0  0  0  0  0  0  0  0  0  0  0
    1.6341    1.9564    0.4553 H   0  0  0  0  0  0  0  0  0  0  0  0
    1.3400   -2.2817   -0.2953 H   0  0  0  0  0  0  0  0  0  0  0  0
    3.4035    1.6775   -0.5961 H   0  0  0  0  0  0  0  0  0  0  0  0
    5.7617    0.1922    0.4030 H   0  0  0  0  0  0  0  0  0  0  0  0
    5.6499    0.6184   -1.3280 H   0  0  0  0  0  0  0  0  0  0  0  0
    5.6568    1.9100   -0.0930 H   0  0  0  0  0  0  0  0  0  0  0  0
  1 14  2  0  0  0  0
  2  7  1  0  0  0  0
  2  8  1  0  0  0  0
  2  9  1  0  0  0  0
  3  9  2  0  0  0  0
  3 13  1  0  0  0  0
  4 14  1  0  0  0  0
  4 15  1  0  0  0  0
  4 27  1  0  0  0  0
  5  6  1  0  0  0  0
  5  7  1  0  0  0  0
  5 16  1  0  0  0  0
  5 17  1  0  0  0  0
  6  8  1  0  0  0  0
  6 18  1  0  0  0  0
  6 19  1  0  0  0  0
  7 20  1  0  0  0  0
  7 21  1  0  0  0  0
  8 22  1  0  0  0  0
  8 23  1  0  0  0  0
  9 10  1  0  0  0  0
 10 11  2  0  0  0  0
 10 24  1  0  0  0  0
 11 12  1  0  0  0  0
 11 25  1  0  0  0  0
 12 13  2  0  0  0  0
 12 14  1  0  0  0  0
 13 26  1  0  0  0  0
 15 28  1  0  0  0  0
 15 29  1  0  0  0  0
 15 30  1  0  0  0  0
M  END
>  <PUBCHEM_COMPOUND_CID>
51076322

>  <PUBCHEM_CONFORMER_RMSD>
0.6

>  <PUBCHEM_CONFORMER_DIVERSEORDER>
2
3
5
1
4
6

>  <PUBCHEM_MMFF94_PARTIAL_CHARGES>
17
1 -0.57
10 -0.15
11 -0.15
12 0.09
13 0.16
14 0.54
15 0.3
2 -0.84
24 0.15
25 0.15
26 0.15
27 0.37
3 -0.62
4 -0.73
7 0.37
8 0.37
9 0.41

>  <PUBCHEM_EFFECTIVE_ROTOR_COUNT>
4

>  <PUBCHEM_PHARMACOPHORE_FEATURES>
5
1 1 acceptor
1 4 donor
3 2 3 9 cation
5 2 5 6 7 8 rings
6 3 9 10 11 12 13 rings

>  <PUBCHEM_HEAVY_ATOM_COUNT>
15

>  <PUBCHEM_ATOM_DEF_STEREO_COUNT>
0

>  <PUBCHEM_ATOM_UDEF_STEREO_COUNT>
0

>  <PUBCHEM_BOND_DEF_STEREO_COUNT>
0

>  <PUBCHEM_BOND_UDEF_STEREO_COUNT>
0

>  <PUBCHEM_ISOTOPIC_ATOM_COUNT>
0

>  <PUBCHEM_COMPONENT_COUNT>
1

>  <PUBCHEM_CACTVS_TAUTO_COUNT>
2

>  <PUBCHEM_CONFORMER_ID>
030B5CE200000002

>  <PUBCHEM_MMFF94_ENERGY>
44.6482

>  <PUBCHEM_FEATURE_SELFOVERLAP>
25.372

>  <PUBCHEM_SHAPE_FINGERPRINT>
10014705 185 18187079521450487677
10680689 15 14908181949974658329
11401426 45 18413103970007532265
11471102 20 18411415094477626460
12032990 46 18342178838634077943
12119455 92 14129054837588339256
13760787 19 18335419075522197170
13760787 5 18408877421551224222
14123238 8 17894911845124116084
14325111 11 18411136926530768657
14911166 2 18202285822743601084
14993402 34 18273497887902247236
15048467 5 18187083961824303012
15196674 1 18410855434379489523
15242433 33 18410575084837321198
17834072 33 18411417349351391580
17834076 25 18040436607597339236
18186145 218 17676203546363175762
18522853 276 18342739611455785753
200 152 18059848477059423653
20645477 70 18340206289415864646
21267235 1 18411990138969678699
22485316 2 18335136483885410731
23402539 116 18272364291292723708
23402655 69 18342735191876415917
23559900 14 18054505812062632510
296302 2 18333734610854866163
300161 21 18334569148701821372
366044 4 18411701006287714938
42788 4 18409167722944093356
474 4 17386575811629781228
4990 188 17918283047484010036
5104073 3 18409729534504283387
537710 114 18412547621872746448
77779 3 18408886222113117907
8809292 202 18334579087889491667

>  <PUBCHEM_SHAPE_MULTIPOLES>
287.88
10.12
1.45
0.64
2.43
0.09
0
-1.51
0.71
-0.04
-0.01
0.03
-0.01
-0.25

>  <PUBCHEM_SHAPE_SELFOVERLAP>
602.774

>  <PUBCHEM_SHAPE_VOLUME>
164.5

>  <PUBCHEM_COORDINATE_TYPE>
2
5
10

$$$$
