52499080
 OpenBabel01182520543D

 44 44  0  0  1  0  0  0  0  0999 V2000
   -1.8473    2.3034   -0.6551 O   0  0  0  0  0  0  0  0  0  0  0  0
   -2.5325    0.3446    0.3796 N   0  0  0  0  0  0  0  0  0  0  0  0
    3.7857   -0.4459    0.0536 N   0  0  0  0  0  0  0  0  0  0  0  0
    2.1719    1.3060    0.0002 N   0  0  0  0  0  0  0  0  0  0  0  0
   -3.9463    0.6400    0.3796 C   0  0  1  0  0  0  0  0  0  0  0  0
   -4.7861   -0.6416    0.2819 C   0  0  0  0  0  0  0  0  0  0  0  0
   -4.4405   -1.4775   -0.9541 C   0  0  0  0  0  0  0  0  0  0  0  0
   -4.3062    1.4297    1.6342 C   0  0  0  0  0  0  0  0  0  0  0  0
   -5.2670   -2.7531   -1.0101 C   0  0  0  0  0  0  0  0  0  0  0  0
   -1.5907    1.2156   -0.1461 C   0  0  0  0  0  0  0  0  0  0  0  0
    2.4352   -0.0200    0.0035 C   0  0  0  0  0  0  0  0  0  0  0  0
    4.8545    0.5275    0.0923 C   0  0  0  0  0  0  0  0  0  0  0  0
    4.1039   -1.8566    0.0586 C   0  0  0  0  0  0  0  0  0  0  0  0
   -0.1798    0.7534   -0.0938 C   0  0  0  0  0  0  0  0  0  0  0  0
    1.4610   -1.0044   -0.0394 C   0  0  0  0  0  0  0  0  0  0  0  0
    0.1309   -0.6020   -0.0889 C   0  0  0  0  0  0  0  0  0  0  0  0
    0.8678    1.6590   -0.0484 C   0  0  0  0  0  0  0  0  0  0  0  0
    5.1408    1.0446   -1.3044 C   0  0  0  0  0  0  0  0  0  0  0  0
    3.9448   -2.4228    1.4565 C   0  0  0  0  0  0  0  0  0  0  0  0
   -4.1644    1.2679   -0.4933 H   0  0  0  0  0  0  0  0  0  0  0  0
   -5.8512   -0.3794    0.2594 H   0  0  0  0  0  0  0  0  0  0  0  0
   -4.6271   -1.2537    1.1795 H   0  0  0  0  0  0  0  0  0  0  0  0
   -3.3803   -1.7534   -0.9511 H   0  0  0  0  0  0  0  0  0  0  0  0
   -4.6208   -0.8889   -1.8610 H   0  0  0  0  0  0  0  0  0  0  0  0
   -2.2345   -0.4916    0.8716 H   0  0  0  0  0  0  0  0  0  0  0  0
   -5.3713    1.6834    1.6443 H   0  0  0  0  0  0  0  0  0  0  0  0
   -3.7375    2.3646    1.6869 H   0  0  0  0  0  0  0  0  0  0  0  0
   -4.0826    0.8575    2.5416 H   0  0  0  0  0  0  0  0  0  0  0  0
   -5.0093   -3.3328   -1.9020 H   0  0  0  0  0  0  0  0  0  0  0  0
   -6.3370   -2.5256   -1.0503 H   0  0  0  0  0  0  0  0  0  0  0  0
   -5.0811   -3.3800   -0.1321 H   0  0  0  0  0  0  0  0  0  0  0  0
    5.7684    0.0760    0.4978 H   0  0  0  0  0  0  0  0  0  0  0  0
    4.6143    1.3591    0.7659 H   0  0  0  0  0  0  0  0  0  0  0  0
    5.1529   -1.9942   -0.2363 H   0  0  0  0  0  0  0  0  0  0  0  0
    3.5468   -2.4300   -0.6908 H   0  0  0  0  0  0  0  0  0  0  0  0
    1.6401   -2.0711   -0.0481 H   0  0  0  0  0  0  0  0  0  0  0  0
   -0.6342   -1.3703   -0.1498 H   0  0  0  0  0  0  0  0  0  0  0  0
    0.6946    2.7308   -0.0456 H   0  0  0  0  0  0  0  0  0  0  0  0
    5.9753    1.7526   -1.2810 H   0  0  0  0  0  0  0  0  0  0  0  0
    4.2772    1.5599   -1.7362 H   0  0  0  0  0  0  0  0  0  0  0  0
    5.4112    0.2256   -1.9796 H   0  0  0  0  0  0  0  0  0  0  0  0
    4.2269   -3.4808    1.4655 H   0  0  0  0  0  0  0  0  0  0  0  0
    2.9239   -2.3492    1.8405 H   0  0  0  0  0  0  0  0  0  0  0  0
    4.5970   -1.8992    2.1645 H   0  0  0  0  0  0  0  0  0  0  0  0
  1 10  2  0  0  0  0
  2  5  1  0  0  0  0
  2 10  1  0  0  0  0
  2 25  1  0  0  0  0
  3 11  1  0  0  0  0
  3 12  1  0  0  0  0
  3 13  1  0  0  0  0
  4 11  2  0  0  0  0
  4 17  1  0  0  0  0
  5  6  1  0  0  0  0
  5  8  1  0  0  0  0
  5 20  1  6  0  0  0
  6  7  1  0  0  0  0
  6 21  1  0  0  0  0
  6 22  1  0  0  0  0
  7  9  1  0  0  0  0
  7 23  1  0  0  0  0
  7 24  1  0  0  0  0
  8 26  1  0  0  0  0
  8 27  1  0  0  0  0
  8 28  1  0  0  0  0
  9 29  1  0  0  0  0
  9 30  1  0  0  0  0
  9 31  1  0  0  0  0
 10 14  1  0  0  0  0
 11 15  1  0  0  0  0
 12 18  1  0  0  0  0
 12 32  1  0  0  0  0
 12 33  1  0  0  0  0
 13 19  1  0  0  0  0
 13 34  1  0  0  0  0
 13 35  1  0  0  0  0
 14 16  1  0  0  0  0
 14 17  2  0  0  0  0
 15 16  2  0  0  0  0
 15 36  1  0  0  0  0
 16 37  1  0  0  0  0
 17 38  1  0  0  0  0
 18 39  1  0  0  0  0
 18 40  1  0  0  0  0
 18 41  1  0  0  0  0
 19 42  1  0  0  0  0
 19 43  1  0  0  0  0
 19 44  1  0  0  0  0
M  END
>  <PUBCHEM_COMPOUND_CID>
52499080

>  <PUBCHEM_CONFORMER_RMSD>
0.8

>  <PUBCHEM_CONFORMER_DIVERSEORDER>
2
14
48
43
39
33
9
55
101
92
26
46
90
30
96
76
102
93
23
25
74
61
52
67
89
83
32
13
62
42
81
37
51
24
97
56
57
59
88
5
75
95
31
34
91
99
87
50
36
18
80
71
53
29
6
49
44
94
65
28
68
63
77
8
78
20
79
54
21
64
47
22
27
86
12
41
19
73
4
69
60
11
40
45
72
10
82
85
16
100
3
84
1
98
58
66
35
17
38
15
70
7

>  <PUBCHEM_MMFF94_PARTIAL_CHARGES>
17
1 -0.57
10 0.54
11 0.41
12 0.37
13 0.37
14 0.09
15 -0.15
16 -0.15
17 0.16
2 -0.73
25 0.37
3 -0.84
36 0.15
37 0.15
38 0.15
4 -0.62
5 0.3

>  <PUBCHEM_EFFECTIVE_ROTOR_COUNT>
8

>  <PUBCHEM_PHARMACOPHORE_FEATURES>
5
1 1 acceptor
1 2 donor
1 9 hydrophobe
3 3 4 11 cation
6 4 11 14 15 16 17 rings

>  <PUBCHEM_HEAVY_ATOM_COUNT>
19

>  <PUBCHEM_ATOM_DEF_STEREO_COUNT>
1

>  <PUBCHEM_ATOM_UDEF_STEREO_COUNT>
0

>  <PUBCHEM_BOND_DEF_STEREO_COUNT>
0

>  <PUBCHEM_BOND_UDEF_STEREO_COUNT>
0

>  <PUBCHEM_ISOTOPIC_ATOM_COUNT>
0

>  <PUBCHEM_COMPONENT_COUNT>
1

>  <PUBCHEM_CACTVS_TAUTO_COUNT>
2

>  <PUBCHEM_CONFORMER_ID>
0321128800000002

>  <PUBCHEM_MMFF94_ENERGY>
45.1312

>  <PUBCHEM_FEATURE_SELFOVERLAP>
25.371

>  <PUBCHEM_SHAPE_FINGERPRINT>
10090160 65 17821733849101357794
10366900 7 18261115213873324232
10912923 1 18412266116424803810
11046707 91 18343298180711201197
11806522 49 18408884048690965108
12596602 18 17846777412636222154
12839892 36 18130217173281142095
13167823 11 18342738520222998951
13675066 3 15769773524574826912
13760787 5 18187088325510692180
14576447 43 18338231669205009398
14787075 74 18335986445302797824
15196674 1 18408886200448377408
15250474 111 18410566262975112419
15415430 10 18341048601427302047
15537594 2 18410302419123533675
17834072 33 18411984688772042812
17857418 61 18409158900896937027
17959699 21 8574711316674483351
18186145 218 13542170651009066560
19141452 34 18341616958855507097
200 152 18408039620025008945
20028762 73 18341886373048040990
20281475 54 18411134723291848945
20645477 70 17748827397600649706
21267235 1 18270125742107540535
21315759 148 16917077671730905894
220451 1 18411709772278880489
22950370 63 18342179946851529052
23402539 116 17894630348910173141
23559900 14 17972872571653347216
23596394 208 16226037847720968242
314194 84 18334580156708308595
3286 77 18059851813790486169
4325135 7 18335424573243697940
5104073 3 18343018869817837811
6913067 236 17603855741606603532
7495541 125 18130782369855088216
76465 3 18336255778222437347

>  <PUBCHEM_SHAPE_MULTIPOLES>
370.2
12.83
2.53
1.1
2.7
1.1
0.18
5.13
-0.7
1.12
-0.05
0.22
0.15
-2.78

>  <PUBCHEM_SHAPE_SELFOVERLAP>
735.889

>  <PUBCHEM_SHAPE_VOLUME>
219.2

>  <PUBCHEM_COORDINATE_TYPE>
2
5
10

$$$$
