52499081
 OpenBabel01182520543D

 44 44  0  0  1  0  0  0  0  0999 V2000
   -1.8854    2.0155    1.2969 O   0  0  0  0  0  0  0  0  0  0  0  0
   -2.5055    0.4379   -0.2856 N   0  0  0  0  0  0  0  0  0  0  0  0
    3.7740   -0.4448   -0.1437 N   0  0  0  0  0  0  0  0  0  0  0  0
    1.4505   -0.9616   -0.2490 N   0  0  0  0  0  0  0  0  0  0  0  0
   -3.9217    0.7200   -0.2584 C   0  0  2  0  0  0  0  0  0  0  0  0
   -4.7464   -0.5374   -0.5684 C   0  0  0  0  0  0  0  0  0  0  0  0
   -4.4701   -1.6784    0.4156 C   0  0  0  0  0  0  0  0  0  0  0  0
   -4.2434    1.8368   -1.2464 C   0  0  0  0  0  0  0  0  0  0  0  0
   -5.3202   -2.8999    0.1017 C   0  0  0  0  0  0  0  0  0  0  0  0
   -1.5957    1.1208    0.5069 C   0  0  0  0  0  0  0  0  0  0  0  0
    2.4203   -0.0582    0.0177 C   0  0  0  0  0  0  0  0  0  0  0  0
    4.1009   -1.7847   -0.5784 C   0  0  0  0  0  0  0  0  0  0  0  0
    4.8368    0.4959    0.1326 C   0  0  0  0  0  0  0  0  0  0  0  0
   -0.1718    0.7306    0.3424 C   0  0  0  0  0  0  0  0  0  0  0  0
    2.1772    1.2375    0.4439 C   0  0  0  0  0  0  0  0  0  0  0  0
    0.8537    1.6317    0.6070 C   0  0  0  0  0  0  0  0  0  0  0  0
    0.1764   -0.5425   -0.0793 C   0  0  0  0  0  0  0  0  0  0  0  0
    4.0380   -2.7442    0.5945 C   0  0  0  0  0  0  0  0  0  0  0  0
    5.0324    1.4251   -1.0499 C   0  0  0  0  0  0  0  0  0  0  0  0
   -4.1820    1.0707    0.7481 H   0  0  0  0  0  0  0  0  0  0  0  0
   -4.5251   -0.8835   -1.5865 H   0  0  0  0  0  0  0  0  0  0  0  0
   -5.8142   -0.2862   -0.5418 H   0  0  0  0  0  0  0  0  0  0  0  0
   -4.6817   -1.3454    1.4383 H   0  0  0  0  0  0  0  0  0  0  0  0
   -3.4143   -1.9695    0.3801 H   0  0  0  0  0  0  0  0  0  0  0  0
   -2.1788   -0.2138   -0.9916 H   0  0  0  0  0  0  0  0  0  0  0  0
   -3.6839    2.7475   -1.0062 H   0  0  0  0  0  0  0  0  0  0  0  0
   -5.3102    2.0825   -1.2253 H   0  0  0  0  0  0  0  0  0  0  0  0
   -3.9792    1.5493   -2.2703 H   0  0  0  0  0  0  0  0  0  0  0  0
   -5.1099   -3.7017    0.8163 H   0  0  0  0  0  0  0  0  0  0  0  0
   -5.1089   -3.2768   -0.9041 H   0  0  0  0  0  0  0  0  0  0  0  0
   -6.3869   -2.6617    0.1629 H   0  0  0  0  0  0  0  0  0  0  0  0
    5.1110   -1.8122   -1.0056 H   0  0  0  0  0  0  0  0  0  0  0  0
    3.4334   -2.1191   -1.3817 H   0  0  0  0  0  0  0  0  0  0  0  0
    5.7774   -0.0511    0.2825 H   0  0  0  0  0  0  0  0  0  0  0  0
    4.7008    1.0402    1.0738 H   0  0  0  0  0  0  0  0  0  0  0  0
    2.9299    1.9811    0.6687 H   0  0  0  0  0  0  0  0  0  0  0  0
    0.6389    2.6443    0.9376 H   0  0  0  0  0  0  0  0  0  0  0  0
   -0.5586   -1.3148   -0.2805 H   0  0  0  0  0  0  0  0  0  0  0  0
    4.3230   -3.7514    0.2740 H   0  0  0  0  0  0  0  0  0  0  0  0
    3.0330   -2.8019    1.0240 H   0  0  0  0  0  0  0  0  0  0  0  0
    4.7233   -2.4367    1.3918 H   0  0  0  0  0  0  0  0  0  0  0  0
    5.8647    2.1091   -0.8541 H   0  0  0  0  0  0  0  0  0  0  0  0
    4.1514    2.0317   -1.2755 H   0  0  0  0  0  0  0  0  0  0  0  0
    5.2758    0.8566   -1.9546 H   0  0  0  0  0  0  0  0  0  0  0  0
  1 10  2  0  0  0  0
  2  5  1  0  0  0  0
  2 10  1  0  0  0  0
  2 25  1  0  0  0  0
  3 11  1  0  0  0  0
  3 12  1  0  0  0  0
  3 13  1  0  0  0  0
  4 11  2  0  0  0  0
  4 17  1  0  0  0  0
  5  6  1  0  0  0  0
  5  8  1  0  0  0  0
  5 20  1  1  0  0  0
  6  7  1  0  0  0  0
  6 21  1  0  0  0  0
  6 22  1  0  0  0  0
  7  9  1  0  0  0  0
  7 23  1  0  0  0  0
  7 24  1  0  0  0  0
  8 26  1  0  0  0  0
  8 27  1  0  0  0  0
  8 28  1  0  0  0  0
  9 29  1  0  0  0  0
  9 30  1  0  0  0  0
  9 31  1  0  0  0  0
 10 14  1  0  0  0  0
 11 15  1  0  0  0  0
 12 18  1  0  0  0  0
 12 32  1  0  0  0  0
 12 33  1  0  0  0  0
 13 19  1  0  0  0  0
 13 34  1  0  0  0  0
 13 35  1  0  0  0  0
 14 16  1  0  0  0  0
 14 17  2  0  0  0  0
 15 16  2  0  0  0  0
 15 36  1  0  0  0  0
 16 37  1  0  0  0  0
 17 38  1  0  0  0  0
 18 39  1  0  0  0  0
 18 40  1  0  0  0  0
 18 41  1  0  0  0  0
 19 42  1  0  0  0  0
 19 43  1  0  0  0  0
 19 44  1  0  0  0  0
M  END
>  <PUBCHEM_COMPOUND_CID>
52499081

>  <PUBCHEM_CONFORMER_RMSD>
0.8

>  <PUBCHEM_CONFORMER_DIVERSEORDER>
1
58
92
86
94
77
100
57
72
37
60
18
30
36
104
79
50
98
81
68
38
64
11
19
82
16
15
90
63
27
85
46
10
70
25
80
103
97
89
99
44
45
7
67
71
53
101
14
105
74
73
32
61
75
76
28
84
6
49
106
26
69
62
21
20
87
22
40
65
42
29
66
78
23
91
95
93
34
8
48
107
83
31
43
88
96
41
51
52
35
54
24
55
39
9
33
17
4
5
12
13
56
102
2
59
3
47

>  <PUBCHEM_MMFF94_PARTIAL_CHARGES>
17
1 -0.57
10 0.54
11 0.41
12 0.37
13 0.37
14 0.09
15 -0.15
16 -0.15
17 0.16
2 -0.73
25 0.37
3 -0.84
36 0.15
37 0.15
38 0.15
4 -0.62
5 0.3

>  <PUBCHEM_EFFECTIVE_ROTOR_COUNT>
8

>  <PUBCHEM_PHARMACOPHORE_FEATURES>
5
1 1 acceptor
1 2 donor
1 9 hydrophobe
3 3 4 11 cation
6 4 11 14 15 16 17 rings

>  <PUBCHEM_HEAVY_ATOM_COUNT>
19

>  <PUBCHEM_ATOM_DEF_STEREO_COUNT>
1

>  <PUBCHEM_ATOM_UDEF_STEREO_COUNT>
0

>  <PUBCHEM_BOND_DEF_STEREO_COUNT>
0

>  <PUBCHEM_BOND_UDEF_STEREO_COUNT>
0

>  <PUBCHEM_ISOTOPIC_ATOM_COUNT>
0

>  <PUBCHEM_COMPONENT_COUNT>
1

>  <PUBCHEM_CACTVS_TAUTO_COUNT>
2

>  <PUBCHEM_CONFORMER_ID>
0321128900000001

>  <PUBCHEM_MMFF94_ENERGY>
44.9544

>  <PUBCHEM_FEATURE_SELFOVERLAP>
25.371

>  <PUBCHEM_SHAPE_FINGERPRINT>
11045515 52 18260830384596370125
11089746 13 14346070970937871372
11543360 7 18040719172931533029
11796584 16 18264482897371486355
11806522 49 18413109467713507200
13103583 49 17416987169630567227
13167823 11 18336262357943685518
13760787 5 18339652118327922168
13941219 33 18339095830427849379
14251718 22 18334015037975789596
14251764 18 18060424604294496521
14576447 43 18413109489404472060
15196674 1 18411699867957766735
15537594 2 17988924517378858135
17492 89 18270403780804894550
17834072 33 18335704961715066604
17844677 252 18261680285229359797
18222031 100 16415469437637494288
193927 3 17917438587793414382
200 152 17917422099788641025
20281475 54 18340489967536393568
20645477 70 18339927013657373982
21054139 6 18113332042227943730
221490 88 18339922722700000729
22393880 68 18114171991664788443
23402539 116 16443060591230838605
23559900 14 18339353055428278114
3004659 81 18335419007335476902
312423 11 18129109939739263968
314194 84 17918267653841394119
329604 57 18411983593634295743
4921388 177 17095532803208577971
5104073 3 18130505249484696691
59755656 520 18265048039008578805
633830 44 16298960757299068924
7495541 125 18342455988742258512

>  <PUBCHEM_SHAPE_MULTIPOLES>
370.2
12.81
2.74
0.94
3.35
1.71
-0.04
5.27
-2.63
1.05
0.22
0.12
-0.35
0.16

>  <PUBCHEM_SHAPE_SELFOVERLAP>
735.853

>  <PUBCHEM_SHAPE_VOLUME>
219.2

>  <PUBCHEM_COORDINATE_TYPE>
2
5
10

$$$$
