52987938
 OpenBabel01182520543D

 17 17  0  0  0  0  0  0  0  0999 V2000
   -3.4305   -1.5310    0.0017 Br  0  0  0  0  0  0  0  0  0  0  0  0
    2.4112   -0.9994   -1.1186 O   0  0  0  0  0  0  0  0  0  0  0  0
   -0.9342    1.7758    0.0209 N   0  0  0  0  0  0  0  0  0  0  0  0
    1.4209    2.0488   -0.0026 N   0  0  0  0  0  0  0  0  0  0  0  0
    2.4299   -1.0464    1.1739 N   0  0  0  0  0  0  0  0  0  0  0  0
    0.4967   -0.1723   -0.0239 C   0  0  0  0  0  0  0  0  0  0  0  0
    0.2874    1.1972   -0.0018 C   0  0  0  0  0  0  0  0  0  0  0  0
   -0.6196   -1.0014   -0.0231 C   0  0  0  0  0  0  0  0  0  0  0  0
   -1.8930   -0.4435   -0.0001 C   0  0  0  0  0  0  0  0  0  0  0  0
    1.8265   -0.7658   -0.0474 C   0  0  0  0  0  0  0  0  0  0  0  0
   -1.9953    0.9381    0.0211 C   0  0  0  0  0  0  0  0  0  0  0  0
   -0.4938   -2.0817   -0.0405 H   0  0  0  0  0  0  0  0  0  0  0  0
   -2.9599    1.4364    0.0395 H   0  0  0  0  0  0  0  0  0  0  0  0
    2.2717    1.7235    0.4394 H   0  0  0  0  0  0  0  0  0  0  0  0
    1.2372    3.0448    0.0095 H   0  0  0  0  0  0  0  0  0  0  0  0
    1.9707   -0.8554    2.0588 H   0  0  0  0  0  0  0  0  0  0  0  0
    3.3579   -1.4543    1.2160 H   0  0  0  0  0  0  0  0  0  0  0  0
  1  9  1  0  0  0  0
  2 10  2  0  0  0  0
  3  7  1  0  0  0  0
  3 11  2  0  0  0  0
  4  7  1  0  0  0  0
  4 14  1  0  0  0  0
  4 15  1  0  0  0  0
  5 10  1  0  0  0  0
  5 16  1  0  0  0  0
  5 17  1  0  0  0  0
  6  7  2  0  0  0  0
  6  8  1  0  0  0  0
  6 10  1  0  0  0  0
  8  9  2  0  0  0  0
  8 12  1  0  0  0  0
  9 11  1  0  0  0  0
 11 13  1  0  0  0  0
M  END
>  <PUBCHEM_COMPOUND_CID>
52987938

>  <PUBCHEM_CONFORMER_RMSD>
0.4

>  <PUBCHEM_CONFORMER_DIVERSEORDER>
2
3
1

>  <PUBCHEM_MMFF94_PARTIAL_CHARGES>
17
1 -0.11
10 0.54
11 0.16
12 0.15
13 0.15
14 0.4
15 0.4
16 0.37
17 0.37
2 -0.57
3 -0.62
4 -0.9
5 -0.8
6 0.09
7 0.41
8 -0.15
9 0.11

>  <PUBCHEM_EFFECTIVE_ROTOR_COUNT>
1

>  <PUBCHEM_PHARMACOPHORE_FEATURES>
7
1 1 hydrophobe
1 2 acceptor
1 3 acceptor
1 4 cation
1 4 donor
1 5 donor
6 3 6 7 8 9 11 rings

>  <PUBCHEM_HEAVY_ATOM_COUNT>
11

>  <PUBCHEM_ATOM_DEF_STEREO_COUNT>
0

>  <PUBCHEM_ATOM_UDEF_STEREO_COUNT>
0

>  <PUBCHEM_BOND_DEF_STEREO_COUNT>
0

>  <PUBCHEM_BOND_UDEF_STEREO_COUNT>
0

>  <PUBCHEM_ISOTOPIC_ATOM_COUNT>
0

>  <PUBCHEM_COMPONENT_COUNT>
1

>  <PUBCHEM_CACTVS_TAUTO_COUNT>
7

>  <PUBCHEM_CONFORMER_ID>
0328882200000002

>  <PUBCHEM_MMFF94_ENERGY>
40.1621

>  <PUBCHEM_FEATURE_SELFOVERLAP>
35.52

>  <PUBCHEM_SHAPE_FINGERPRINT>
10857977 72 18342446011353810402
12423570 1 11599733822049265234
14128692 85 18411430513373347909
161256 15 18339084907460845181
16945 1 18266741273064704389
20645477 70 18267862973037461479
20653091 64 18335983155025403464
20871998 184 18201431433215237439
20871998 22 18342463642221161479
21040471 1 17762338007161262860
21501502 16 18410295839201981129
21501925 9 18339630252596514859
23552423 10 18260553371852465029
23559900 14 17838899227620453414
241688 4 18408604747236933137
2748010 2 18410568522380552549
5084963 1 18060707177812325779
528862 383 18193833975449813031
7364860 26 18129384980348803360

>  <PUBCHEM_SHAPE_MULTIPOLES>
211.5
4.23
1.96
0.79
2.19
0.77
-0.02
-2.22
-0.04
-0.26
-0.02
-0.38
-0.25
-0.03

>  <PUBCHEM_SHAPE_SELFOVERLAP>
429.182

>  <PUBCHEM_SHAPE_VOLUME>
126.5

>  <PUBCHEM_COORDINATE_TYPE>
2
5
10

$$$$
