53015798
 OpenBabel01182520543D

 29 29  0  0  0  0  0  0  0  0999 V2000
    1.5146   -0.3605    1.7774 O   0  0  0  0  0  0  0  0  0  0  0  0
   -0.3938    1.8044    0.0326 N   0  0  0  0  0  0  0  0  0  0  0  0
    2.1126   -0.5645   -0.4731 N   0  0  0  0  0  0  0  0  0  0  0  0
   -2.3356    0.4733   -0.2473 N   0  0  0  0  0  0  0  0  0  0  0  0
   -0.2292   -0.5813    0.2966 C   0  0  0  0  0  0  0  0  0  0  0  0
   -1.0123    0.5288    0.0244 C   0  0  0  0  0  0  0  0  0  0  0  0
    1.2094   -0.4882    0.5922 C   0  0  0  0  0  0  0  0  0  0  0  0
   -0.8434   -1.8287    0.2893 C   0  0  0  0  0  0  0  0  0  0  0  0
    0.2478    2.2931    1.2324 C   0  0  0  0  0  0  0  0  0  0  0  0
   -0.3945    2.6201   -1.1611 C   0  0  0  0  0  0  0  0  0  0  0  0
   -2.2029   -1.9265    0.0141 C   0  0  0  0  0  0  0  0  0  0  0  0
    3.5537   -0.4974   -0.2743 C   0  0  0  0  0  0  0  0  0  0  0  0
    1.6715   -0.7165   -1.8579 C   0  0  0  0  0  0  0  0  0  0  0  0
   -2.8978   -0.7562   -0.2453 C   0  0  0  0  0  0  0  0  0  0  0  0
   -0.2736   -2.7306    0.4967 H   0  0  0  0  0  0  0  0  0  0  0  0
   -0.0055    3.3480    1.3890 H   0  0  0  0  0  0  0  0  0  0  0  0
    1.3372    2.2295    1.1479 H   0  0  0  0  0  0  0  0  0  0  0  0
   -0.0804    1.7580    2.1304 H   0  0  0  0  0  0  0  0  0  0  0  0
    0.2658    3.4873   -1.0532 H   0  0  0  0  0  0  0  0  0  0  0  0
   -1.4030    2.9901   -1.3734 H   0  0  0  0  0  0  0  0  0  0  0  0
   -0.0449    2.0455   -2.0255 H   0  0  0  0  0  0  0  0  0  0  0  0
   -2.7027   -2.8883    0.0030 H   0  0  0  0  0  0  0  0  0  0  0  0
    4.0067   -1.4188   -0.6507 H   0  0  0  0  0  0  0  0  0  0  0  0
    3.7972   -0.3848    0.7853 H   0  0  0  0  0  0  0  0  0  0  0  0
    3.9474    0.3612   -0.8256 H   0  0  0  0  0  0  0  0  0  0  0  0
    2.1024   -1.6403   -2.2563 H   0  0  0  0  0  0  0  0  0  0  0  0
    2.0520    0.1324   -2.4345 H   0  0  0  0  0  0  0  0  0  0  0  0
    0.5905   -0.7594   -1.9850 H   0  0  0  0  0  0  0  0  0  0  0  0
   -3.9600   -0.7782   -0.4657 H   0  0  0  0  0  0  0  0  0  0  0  0
  1  7  2  0  0  0  0
  2  6  1  0  0  0  0
  2  9  1  0  0  0  0
  2 10  1  0  0  0  0
  3  7  1  0  0  0  0
  3 12  1  0  0  0  0
  3 13  1  0  0  0  0
  4  6  1  0  0  0  0
  4 14  2  0  0  0  0
  5  6  2  0  0  0  0
  5  7  1  0  0  0  0
  5  8  1  0  0  0  0
  8 11  2  0  0  0  0
  8 15  1  0  0  0  0
  9 16  1  0  0  0  0
  9 17  1  0  0  0  0
  9 18  1  0  0  0  0
 10 19  1  0  0  0  0
 10 20  1  0  0  0  0
 10 21  1  0  0  0  0
 11 14  1  0  0  0  0
 11 22  1  0  0  0  0
 12 23  1  0  0  0  0
 12 24  1  0  0  0  0
 12 25  1  0  0  0  0
 13 26  1  0  0  0  0
 13 27  1  0  0  0  0
 13 28  1  0  0  0  0
 14 29  1  0  0  0  0
M  END
>  <PUBCHEM_COMPOUND_CID>
53015798

>  <PUBCHEM_CONFORMER_RMSD>
0.6

>  <PUBCHEM_CONFORMER_DIVERSEORDER>
2
3
1
4
5

>  <PUBCHEM_MMFF94_PARTIAL_CHARGES>
17
1 -0.57
10 0.37
11 -0.15
12 0.3
13 0.3
14 0.16
15 0.15
2 -0.84
22 0.15
29 0.15
3 -0.66
4 -0.62
5 0.09
6 0.41
7 0.54
8 -0.15
9 0.37

>  <PUBCHEM_EFFECTIVE_ROTOR_COUNT>
3

>  <PUBCHEM_PHARMACOPHORE_FEATURES>
4
1 1 acceptor
1 2 cation
1 4 acceptor
6 4 5 6 8 11 14 rings

>  <PUBCHEM_HEAVY_ATOM_COUNT>
14

>  <PUBCHEM_ATOM_DEF_STEREO_COUNT>
0

>  <PUBCHEM_ATOM_UDEF_STEREO_COUNT>
0

>  <PUBCHEM_BOND_DEF_STEREO_COUNT>
0

>  <PUBCHEM_BOND_UDEF_STEREO_COUNT>
0

>  <PUBCHEM_ISOTOPIC_ATOM_COUNT>
0

>  <PUBCHEM_COMPONENT_COUNT>
1

>  <PUBCHEM_CACTVS_TAUTO_COUNT>
1

>  <PUBCHEM_CONFORMER_ID>
0328F4F600000002

>  <PUBCHEM_MMFF94_ENERGY>
64.2661

>  <PUBCHEM_FEATURE_SELFOVERLAP>
20.297

>  <PUBCHEM_SHAPE_FINGERPRINT>
1 1 17405991137622491153
12524768 44 18196923577470273339
13380535 220 18335988682991237149
14120999 15 18188787126736613901
14614273 12 18119811304935451013
14817 1 14828593684527975084
15775835 57 17753060397193041708
161256 15 17975700811654533875
16945 1 18188758453592695123
17990270 104 18124871523887448651
19837323 101 17979096897839743216
20233049 118 18113890551221636471
20344682 1 17989487437531076910
20645477 70 17689425406164880591
20711985 344 18339358552706679625
21061003 4 16630529501457607282
22802520 49 17985003508574587518
228727 97 17968388887414970154
23402539 116 18412256212404565454
23419403 2 18125976447047852596
23552423 10 17828196933057912635
23557571 272 18271257053498778086
23559900 14 18341327791787703978
2748010 2 18192413381015579789
305870 269 10159161422689106399
353137 74 18263085413860587918
430814 3 17260487872035727512
4369600 1 18334856159870557011
4663303 62 17913768593994474897
535629 181 17827681090010232838
7364860 26 17840308044847340857
77492 1 17530962458449146642
81228 2 18267887006956323408
84936 31 16844448413615130584

>  <PUBCHEM_SHAPE_MULTIPOLES>
267.3
3.78
2.46
1.32
1.05
1.78
-0.08
-2.04
-0.6
-0.68
-0.12
0.74
0.23
0.32

>  <PUBCHEM_SHAPE_SELFOVERLAP>
544.954

>  <PUBCHEM_SHAPE_VOLUME>
156.7

>  <PUBCHEM_COORDINATE_TYPE>
2
5
10

$$$$
