53334698
 OpenBabel01182520543D

 36 37  0  0  0  0  0  0  0  0999 V2000
   -0.6695    1.3344   -1.6201 O   0  0  0  0  0  0  0  0  0  0  0  0
    0.4004   -0.2797   -0.3454 N   0  0  0  0  0  0  0  0  0  0  0  0
   -4.0566    0.4302    0.9312 N   0  0  0  0  0  0  0  0  0  0  0  0
   -2.4466    2.1450    0.6346 N   0  0  0  0  0  0  0  0  0  0  0  0
    1.7495    0.0495   -0.7585 C   0  0  0  0  0  0  0  0  0  0  0  0
    2.2947    1.1736    0.1282 C   0  0  0  0  0  0  0  0  0  0  0  0
    2.5989   -1.2221   -0.8506 C   0  0  0  0  0  0  0  0  0  0  0  0
    3.8073    1.3690    0.0709 C   0  0  0  0  0  0  0  0  0  0  0  0
    3.2498   -1.6646    0.4592 C   0  0  0  0  0  0  0  0  0  0  0  0
    4.5540    0.4777    1.0621 C   0  0  0  0  0  0  0  0  0  0  0  0
    4.6059   -1.0021    0.6973 C   0  0  0  0  0  0  0  0  0  0  0  0
   -0.7060    0.4029   -0.8205 C   0  0  0  0  0  0  0  0  0  0  0  0
   -2.0173   -0.0385   -0.2796 C   0  0  0  0  0  0  0  0  0  0  0  0
   -2.8603    0.8053    0.4254 C   0  0  0  0  0  0  0  0  0  0  0  0
   -2.4285   -1.3518   -0.4785 C   0  0  0  0  0  0  0  0  0  0  0  0
   -3.6529   -1.7751    0.0265 C   0  0  0  0  0  0  0  0  0  0  0  0
   -4.4228   -0.8536    0.7180 C   0  0  0  0  0  0  0  0  0  0  0  0
    1.6786    0.4448   -1.7810 H   0  0  0  0  0  0  0  0  0  0  0  0
    1.8131    2.1102   -0.1847 H   0  0  0  0  0  0  0  0  0  0  0  0
    1.9812    1.0259    1.1704 H   0  0  0  0  0  0  0  0  0  0  0  0
    3.3777   -1.0806   -1.6110 H   0  0  0  0  0  0  0  0  0  0  0  0
    1.9710   -2.0429   -1.2229 H   0  0  0  0  0  0  0  0  0  0  0  0
    4.0198    2.4099    0.3465 H   0  0  0  0  0  0  0  0  0  0  0  0
    4.1889    1.2340   -0.9474 H   0  0  0  0  0  0  0  0  0  0  0  0
    3.4243   -2.7464    0.3958 H   0  0  0  0  0  0  0  0  0  0  0  0
    2.5808   -1.5083    1.3128 H   0  0  0  0  0  0  0  0  0  0  0  0
    4.1148    0.5896    2.0613 H   0  0  0  0  0  0  0  0  0  0  0  0
    5.5863    0.8410    1.1427 H   0  0  0  0  0  0  0  0  0  0  0  0
    5.2409   -1.1351   -0.1876 H   0  0  0  0  0  0  0  0  0  0  0  0
    5.1105   -1.5332    1.5142 H   0  0  0  0  0  0  0  0  0  0  0  0
    0.2763   -0.9969    0.3639 H   0  0  0  0  0  0  0  0  0  0  0  0
   -1.8085   -2.0553   -1.0278 H   0  0  0  0  0  0  0  0  0  0  0  0
   -3.9943   -2.7938   -0.1172 H   0  0  0  0  0  0  0  0  0  0  0  0
   -5.3859   -1.1337    1.1318 H   0  0  0  0  0  0  0  0  0  0  0  0
   -3.0840    2.7395    1.1505 H   0  0  0  0  0  0  0  0  0  0  0  0
   -1.4560    2.3397    0.7121 H   0  0  0  0  0  0  0  0  0  0  0  0
  1 12  2  0  0  0  0
  2  5  1  0  0  0  0
  2 12  1  0  0  0  0
  2 31  1  0  0  0  0
  3 14  1  0  0  0  0
  3 17  2  0  0  0  0
  4 14  1  0  0  0  0
  4 35  1  0  0  0  0
  4 36  1  0  0  0  0
  5  6  1  0  0  0  0
  5  7  1  0  0  0  0
  5 18  1  0  0  0  0
  6  8  1  0  0  0  0
  6 19  1  0  0  0  0
  6 20  1  0  0  0  0
  7  9  1  0  0  0  0
  7 21  1  0  0  0  0
  7 22  1  0  0  0  0
  8 10  1  0  0  0  0
  8 23  1  0  0  0  0
  8 24  1  0  0  0  0
  9 11  1  0  0  0  0
  9 25  1  0  0  0  0
  9 26  1  0  0  0  0
 10 11  1  0  0  0  0
 10 27  1  0  0  0  0
 10 28  1  0  0  0  0
 11 29  1  0  0  0  0
 11 30  1  0  0  0  0
 12 13  1  0  0  0  0
 13 14  2  0  0  0  0
 13 15  1  0  0  0  0
 15 16  2  0  0  0  0
 15 32  1  0  0  0  0
 16 17  1  0  0  0  0
 16 33  1  0  0  0  0
 17 34  1  0  0  0  0
M  END
>  <PUBCHEM_COMPOUND_CID>
53334698

>  <PUBCHEM_CONFORMER_RMSD>
0.6

>  <PUBCHEM_CONFORMER_DIVERSEORDER>
1
44
31
9
30
22
39
29
18
37
19
21
17
14
41
13
42
24
4
26
46
7
11
25
43
40
23
8
12
34
15
16
35
38
28
36
10
20
45
27
5
3
32
6
2
33

>  <PUBCHEM_MMFF94_PARTIAL_CHARGES>
17
1 -0.57
12 0.54
13 0.09
14 0.41
15 -0.15
16 -0.15
17 0.16
2 -0.73
3 -0.62
31 0.37
32 0.15
33 0.15
34 0.15
35 0.4
36 0.4
4 -0.9
5 0.3

>  <PUBCHEM_EFFECTIVE_ROTOR_COUNT>
4.4

>  <PUBCHEM_PHARMACOPHORE_FEATURES>
7
1 1 acceptor
1 2 donor
1 3 acceptor
1 4 cation
1 4 donor
6 3 13 14 15 16 17 rings
7 5 6 7 8 9 10 11 rings

>  <PUBCHEM_HEAVY_ATOM_COUNT>
17

>  <PUBCHEM_ATOM_DEF_STEREO_COUNT>
0

>  <PUBCHEM_ATOM_UDEF_STEREO_COUNT>
0

>  <PUBCHEM_BOND_DEF_STEREO_COUNT>
0

>  <PUBCHEM_BOND_UDEF_STEREO_COUNT>
0

>  <PUBCHEM_ISOTOPIC_ATOM_COUNT>
0

>  <PUBCHEM_COMPONENT_COUNT>
1

>  <PUBCHEM_CACTVS_TAUTO_COUNT>
7

>  <PUBCHEM_CONFORMER_ID>
032DD2AA00000001

>  <PUBCHEM_MMFF94_ENERGY>
47.6915

>  <PUBCHEM_FEATURE_SELFOVERLAP>
35.521

>  <PUBCHEM_SHAPE_FINGERPRINT>
10366900 7 18129378361745879282
11543360 7 7997962475334344356
12107183 9 17835522622308685370
12251169 10 18413108359511555758
12363563 72 16298104289391246564
12507560 40 18060425676844096524
12633257 1 18060427923465381585
12670546 177 8574715706294349946
12707595 3 15285363933214782334
12892183 10 18342459239852984546
13167823 11 18409729569080578186
13583140 156 17846483825382406696
14123260 362 12751233726914610819
1420 369 17749108906610200363
14252887 29 17894347804591860504
14289901 80 18412829105117320296
14341114 176 18341618118100862968
14341114 328 18273218633434165456
14420673 8 18052263890842825358
16752209 62 15068610578722889525
1813 80 17313109648105608916
19050596 39 18341894116751612898
19862831 5 8286204950298217854
200 152 18341598357114693855
20281475 54 18260269612259205614
20361792 2 16950005841696093101
20671657 53 14851604388417619230
20871999 31 8502364517188177825
21065198 48 18413109467628909872
21065199 12 18343584014641951938
21501925 9 18333730238704844022
21673915 165 18335698394641863138
22079108 93 13398633892043738807
22646028 1 18113056042917556746
22646028 28 17240202140148297090
231179 274 14117798007710720186
23402539 116 18339915009007425975
23503953 91 18343580728865396018
23559900 14 17987537947321869236
251288 83 18113614616868872762
26918003 58 18333728048398181939
2838139 119 13828188724161929323
42 15 18408041805767717322
4214541 1 18411981325701795856
5104073 3 18413673504135347675
5374978 207 18343306976487718867
5924683 9 18130499834143352703
633830 44 11455900147831438733
9882013 296 18409728499654514956

>  <PUBCHEM_SHAPE_MULTIPOLES>
329.04
10.04
1.86
1.08
1.73
0.05
-0.13
-1.81
3.82
-0.16
0.09
0.09
0.13
-0.18

>  <PUBCHEM_SHAPE_SELFOVERLAP>
678.778

>  <PUBCHEM_SHAPE_VOLUME>
185.3

>  <PUBCHEM_COORDINATE_TYPE>
2
5
10

$$$$
