53334700
 OpenBabel01182520543D

 37 38  0  0  0  0  0  0  0  0999 V2000
   -1.4830   -2.3194    0.9694 O   0  0  0  0  0  0  0  0  0  0  0  0
   -0.1038   -1.2778   -0.5777 N   0  0  0  0  0  0  0  0  0  0  0  0
   -2.9297    1.9906    0.1024 N   0  0  0  0  0  0  0  0  0  0  0  0
   -0.7255    1.3629    0.7092 N   0  0  0  0  0  0  0  0  0  0  0  0
    3.3777   -0.4404   -1.0597 C   0  0  0  0  0  0  0  0  0  0  0  0
    4.3139    0.7687   -1.1323 C   0  0  0  0  0  0  0  0  0  0  0  0
    2.6871   -0.5900    0.2733 C   0  0  0  0  0  0  0  0  0  0  0  0
    3.6750    2.0002   -0.5018 C   0  0  0  0  0  0  0  0  0  0  0  0
    3.3090    1.7416    0.9598 C   0  0  0  0  0  0  0  0  0  0  0  0
    2.0107   -1.9053    0.5237 C   0  0  0  0  0  0  0  0  0  0  0  0
    2.6772    0.3993    1.1835 C   0  0  0  0  0  0  0  0  0  0  0  0
    0.9642   -2.2403   -0.5301 C   0  0  0  0  0  0  0  0  0  0  0  0
   -1.2568   -1.3991    0.1881 C   0  0  0  0  0  0  0  0  0  0  0  0
   -2.2774   -0.3353    0.0047 C   0  0  0  0  0  0  0  0  0  0  0  0
   -2.0200    1.0025    0.2575 C   0  0  0  0  0  0  0  0  0  0  0  0
   -3.5500   -0.6814   -0.4356 C   0  0  0  0  0  0  0  0  0  0  0  0
   -4.5129    0.3070   -0.6073 C   0  0  0  0  0  0  0  0  0  0  0  0
   -4.1556    1.6162   -0.3272 C   0  0  0  0  0  0  0  0  0  0  0  0
    2.6184   -0.3369   -1.8443 H   0  0  0  0  0  0  0  0  0  0  0  0
    3.9589   -1.3424   -1.2854 H   0  0  0  0  0  0  0  0  0  0  0  0
    4.5738    0.9718   -2.1774 H   0  0  0  0  0  0  0  0  0  0  0  0
    5.2516    0.5382   -0.6105 H   0  0  0  0  0  0  0  0  0  0  0  0
    2.7720    2.2696   -1.0647 H   0  0  0  0  0  0  0  0  0  0  0  0
    4.3571    2.8554   -0.5664 H   0  0  0  0  0  0  0  0  0  0  0  0
    2.6233    2.5264    1.2990 H   0  0  0  0  0  0  0  0  0  0  0  0
    4.2076    1.8084    1.5845 H   0  0  0  0  0  0  0  0  0  0  0  0
    1.5399   -1.9148    1.5152 H   0  0  0  0  0  0  0  0  0  0  0  0
    2.7712   -2.6958    0.5369 H   0  0  0  0  0  0  0  0  0  0  0  0
    2.1873    0.2490    2.1419 H   0  0  0  0  0  0  0  0  0  0  0  0
    1.3998   -2.2996   -1.5328 H   0  0  0  0  0  0  0  0  0  0  0  0
    0.5394   -3.2268   -0.3105 H   0  0  0  0  0  0  0  0  0  0  0  0
   -0.0033   -0.4837   -1.2035 H   0  0  0  0  0  0  0  0  0  0  0  0
   -3.8036   -1.7162   -0.6494 H   0  0  0  0  0  0  0  0  0  0  0  0
   -5.5113    0.0606   -0.9499 H   0  0  0  0  0  0  0  0  0  0  0  0
   -4.8701    2.4242   -0.4451 H   0  0  0  0  0  0  0  0  0  0  0  0
   -0.5643    2.3481    0.8803 H   0  0  0  0  0  0  0  0  0  0  0  0
   -0.2134    0.6993    1.2768 H   0  0  0  0  0  0  0  0  0  0  0  0
  1 13  2  0  0  0  0
  2 12  1  0  0  0  0
  2 13  1  0  0  0  0
  2 32  1  0  0  0  0
  3 15  1  0  0  0  0
  3 18  2  0  0  0  0
  4 15  1  0  0  0  0
  4 36  1  0  0  0  0
  4 37  1  0  0  0  0
  5  6  1  0  0  0  0
  5  7  1  0  0  0  0
  5 19  1  0  0  0  0
  5 20  1  0  0  0  0
  6  8  1  0  0  0  0
  6 21  1  0  0  0  0
  6 22  1  0  0  0  0
  7 10  1  0  0  0  0
  7 11  2  0  0  0  0
  8  9  1  0  0  0  0
  8 23  1  0  0  0  0
  8 24  1  0  0  0  0
  9 11  1  0  0  0  0
  9 25  1  0  0  0  0
  9 26  1  0  0  0  0
 10 12  1  0  0  0  0
 10 27  1  0  0  0  0
 10 28  1  0  0  0  0
 11 29  1  0  0  0  0
 12 30  1  0  0  0  0
 12 31  1  0  0  0  0
 13 14  1  0  0  0  0
 14 15  2  0  0  0  0
 14 16  1  0  0  0  0
 16 17  2  0  0  0  0
 16 33  1  0  0  0  0
 17 18  1  0  0  0  0
 17 34  1  0  0  0  0
 18 35  1  0  0  0  0
M  END
>  <PUBCHEM_COMPOUND_CID>
53334700

>  <PUBCHEM_CONFORMER_RMSD>
0.8

>  <PUBCHEM_CONFORMER_DIVERSEORDER>
1
7
24
14
12
17
6
3
18
19
26
5
15
16
4
8
11
25
10
23
2
29
21
9
27
22
28
13
20
30

>  <PUBCHEM_MMFF94_PARTIAL_CHARGES>
23
1 -0.57
10 0.14
11 -0.29
12 0.3
13 0.54
14 0.09
15 0.41
16 -0.15
17 -0.15
18 0.16
2 -0.73
29 0.15
3 -0.62
32 0.37
33 0.15
34 0.15
35 0.15
36 0.4
37 0.4
4 -0.9
5 0.14
7 -0.28
9 0.14

>  <PUBCHEM_EFFECTIVE_ROTOR_COUNT>
5.8

>  <PUBCHEM_PHARMACOPHORE_FEATURES>
7
1 1 acceptor
1 2 donor
1 3 acceptor
1 4 cation
1 4 donor
6 3 14 15 16 17 18 rings
6 5 6 7 8 9 11 rings

>  <PUBCHEM_HEAVY_ATOM_COUNT>
18

>  <PUBCHEM_ATOM_DEF_STEREO_COUNT>
0

>  <PUBCHEM_ATOM_UDEF_STEREO_COUNT>
0

>  <PUBCHEM_BOND_DEF_STEREO_COUNT>
0

>  <PUBCHEM_BOND_UDEF_STEREO_COUNT>
0

>  <PUBCHEM_ISOTOPIC_ATOM_COUNT>
0

>  <PUBCHEM_COMPONENT_COUNT>
1

>  <PUBCHEM_CACTVS_TAUTO_COUNT>
7

>  <PUBCHEM_CONFORMER_ID>
032DD2AC00000001

>  <PUBCHEM_MMFF94_ENERGY>
34.3517

>  <PUBCHEM_FEATURE_SELFOVERLAP>
35.522

>  <PUBCHEM_SHAPE_FINGERPRINT>
10498660 4 18411419557012151852
10759866 29 18259985998562614506
11370993 70 18409726296262789956
11615756 256 18412267198804210321
122479 349 18408038524318049931
12633257 1 17168409520313125216
13583140 156 16443347615321126289
13764800 53 18261960759637017466
14251764 38 17533198783443307573
14528608 73 18271799125647906629
14787075 74 18409727400681360195
14790565 3 17911239417632170617
15196674 1 18412542115281294961
15885798 251 9727633916803926279
17959699 21 18192703450496656909
1798214 55 18410853291507514804
18186145 218 18340484452761351645
20671657 1 18337668612189025234
20715895 44 17828465987058360173
21524375 3 18338232669996088974
21864079 5 18264487459117059836
22646028 28 10519985958932470716
22749437 52 18409445890627421404
23227448 37 18337670927138909639
23503958 25 18265624371219686362
23557571 272 18265627660801313687
23559900 14 18198052578206918699
2637199 183 18411146831274031574
345986 75 16522702388981731810
4028521 119 18341614836402911852
44154327 71 18335141968611648700
474 4 18261110725563765311
5262128 65 17131287791445830560
6333272 397 18334012778859934643
633830 44 18339920403533621215
6786 2 13321288582925457267
7808743 9 18119812667047005092
9709674 26 18342173426922323090
9981440 41 18335696186939002762

>  <PUBCHEM_SHAPE_MULTIPOLES>
349.62
9.03
2.52
1.05
1.85
0.35
0.01
-4.61
-2.04
-0.3
0.23
-0.82
-0.04
0.16

>  <PUBCHEM_SHAPE_SELFOVERLAP>
725.427

>  <PUBCHEM_SHAPE_VOLUME>
196.3

>  <PUBCHEM_COORDINATE_TYPE>
2
5
10

$$$$
