53334699
 OpenBabel01182520543D

 39 40  0  0  0  0  0  0  0  0999 V2000
   -0.9222   -1.2635    1.8093 O   0  0  0  0  0  0  0  0  0  0  0  0
    0.0666   -0.4037   -0.1030 N   0  0  0  0  0  0  0  0  0  0  0  0
   -3.8892    1.3720   -0.5725 N   0  0  0  0  0  0  0  0  0  0  0  0
   -1.7040    2.0016    0.0978 N   0  0  0  0  0  0  0  0  0  0  0  0
    1.4330   -0.7389    0.2532 C   0  0  0  0  0  0  0  0  0  0  0  0
    2.0223    0.3749    1.1300 C   0  0  0  0  0  0  0  0  0  0  0  0
    2.2024   -1.0889   -1.0236 C   0  0  0  0  0  0  0  0  0  0  0  0
    2.5046    1.6186    0.3766 C   0  0  0  0  0  0  0  0  0  0  0  0
    3.6073   -1.6540   -0.8308 C   0  0  0  0  0  0  0  0  0  0  0  0
    4.0230    1.7122    0.2107 C   0  0  0  0  0  0  0  0  0  0  0  0
    4.6681   -0.7423   -0.2144 C   0  0  0  0  0  0  0  0  0  0  0  0
    4.6760    0.6967   -0.7298 C   0  0  0  0  0  0  0  0  0  0  0  0
   -1.0035   -0.7010    0.7203 C   0  0  0  0  0  0  0  0  0  0  0  0
   -2.3408   -0.3163    0.2002 C   0  0  0  0  0  0  0  0  0  0  0  0
   -2.6801    0.9928   -0.1011 C   0  0  0  0  0  0  0  0  0  0  0  0
   -3.3041   -1.2998    0.0051 C   0  0  0  0  0  0  0  0  0  0  0  0
   -4.5597   -0.9489   -0.4785 C   0  0  0  0  0  0  0  0  0  0  0  0
   -4.7999    0.3885   -0.7494 C   0  0  0  0  0  0  0  0  0  0  0  0
    1.3843   -1.6438    0.8732 H   0  0  0  0  0  0  0  0  0  0  0  0
    1.2524    0.6968    1.8451 H   0  0  0  0  0  0  0  0  0  0  0  0
    2.8242   -0.0264    1.7575 H   0  0  0  0  0  0  0  0  0  0  0  0
    2.2251   -0.2365   -1.7118 H   0  0  0  0  0  0  0  0  0  0  0  0
    1.6253   -1.8555   -1.5612 H   0  0  0  0  0  0  0  0  0  0  0  0
    2.2008    2.4948    0.9654 H   0  0  0  0  0  0  0  0  0  0  0  0
    2.0032    1.7292   -0.5909 H   0  0  0  0  0  0  0  0  0  0  0  0
    3.5505   -2.5756   -0.2381 H   0  0  0  0  0  0  0  0  0  0  0  0
    3.9696   -1.9611   -1.8212 H   0  0  0  0  0  0  0  0  0  0  0  0
    4.5025    1.6591    1.1963 H   0  0  0  0  0  0  0  0  0  0  0  0
    4.2497    2.7135   -0.1783 H   0  0  0  0  0  0  0  0  0  0  0  0
    5.6422   -1.1916   -0.4523 H   0  0  0  0  0  0  0  0  0  0  0  0
    4.6124   -0.7700    0.8782 H   0  0  0  0  0  0  0  0  0  0  0  0
    5.7265    1.0004   -0.8332 H   0  0  0  0  0  0  0  0  0  0  0  0
    4.2498    0.7689   -1.7362 H   0  0  0  0  0  0  0  0  0  0  0  0
   -0.0964    0.1009   -0.9700 H   0  0  0  0  0  0  0  0  0  0  0  0
   -3.0889   -2.3422    0.2245 H   0  0  0  0  0  0  0  0  0  0  0  0
   -5.3260   -1.6986   -0.6387 H   0  0  0  0  0  0  0  0  0  0  0  0
   -5.7630    0.7141   -1.1284 H   0  0  0  0  0  0  0  0  0  0  0  0
   -1.9782    2.9489   -0.1326 H   0  0  0  0  0  0  0  0  0  0  0  0
   -1.0167    1.8755    0.8304 H   0  0  0  0  0  0  0  0  0  0  0  0
  1 13  2  0  0  0  0
  2  5  1  0  0  0  0
  2 13  1  0  0  0  0
  2 34  1  0  0  0  0
  3 15  1  0  0  0  0
  3 18  2  0  0  0  0
  4 15  1  0  0  0  0
  4 38  1  0  0  0  0
  4 39  1  0  0  0  0
  5  6  1  0  0  0  0
  5  7  1  0  0  0  0
  5 19  1  0  0  0  0
  6  8  1  0  0  0  0
  6 20  1  0  0  0  0
  6 21  1  0  0  0  0
  7  9  1  0  0  0  0
  7 22  1  0  0  0  0
  7 23  1  0  0  0  0
  8 10  1  0  0  0  0
  8 24  1  0  0  0  0
  8 25  1  0  0  0  0
  9 11  1  0  0  0  0
  9 26  1  0  0  0  0
  9 27  1  0  0  0  0
 10 12  1  0  0  0  0
 10 28  1  0  0  0  0
 10 29  1  0  0  0  0
 11 12  1  0  0  0  0
 11 30  1  0  0  0  0
 11 31  1  0  0  0  0
 12 32  1  0  0  0  0
 12 33  1  0  0  0  0
 13 14  1  0  0  0  0
 14 15  2  0  0  0  0
 14 16  1  0  0  0  0
 16 17  2  0  0  0  0
 16 35  1  0  0  0  0
 17 18  1  0  0  0  0
 17 36  1  0  0  0  0
 18 37  1  0  0  0  0
M  END
>  <PUBCHEM_COMPOUND_CID>
53334699

>  <PUBCHEM_CONFORMER_RMSD>
0.6

>  <PUBCHEM_CONFORMER_DIVERSEORDER>
3
48
75
29
40
73
83
12
74
66
67
72
60
19
69
81
84
64
32
15
31
86
62
13
44
34
76
14
68
57
80
65
33
16
70
78
42
41
56
59
45
38
79
85
5
63
82
37
36
77
27
21
18
35
10
39
51
50
1
49
20
43
25
4
8
6
52
61
7
11
24
54
2
17
26
9
22
71
23
30
46
55
58
53
47
28

>  <PUBCHEM_MMFF94_PARTIAL_CHARGES>
17
1 -0.57
13 0.54
14 0.09
15 0.41
16 -0.15
17 -0.15
18 0.16
2 -0.73
3 -0.62
34 0.37
35 0.15
36 0.15
37 0.15
38 0.4
39 0.4
4 -0.9
5 0.3

>  <PUBCHEM_EFFECTIVE_ROTOR_COUNT>
4.6

>  <PUBCHEM_PHARMACOPHORE_FEATURES>
6
1 1 acceptor
1 2 donor
1 3 acceptor
1 4 cation
1 4 donor
6 3 14 15 16 17 18 rings

>  <PUBCHEM_HEAVY_ATOM_COUNT>
18

>  <PUBCHEM_ATOM_DEF_STEREO_COUNT>
0

>  <PUBCHEM_ATOM_UDEF_STEREO_COUNT>
0

>  <PUBCHEM_BOND_DEF_STEREO_COUNT>
0

>  <PUBCHEM_BOND_UDEF_STEREO_COUNT>
0

>  <PUBCHEM_ISOTOPIC_ATOM_COUNT>
0

>  <PUBCHEM_COMPONENT_COUNT>
1

>  <PUBCHEM_CACTVS_TAUTO_COUNT>
7

>  <PUBCHEM_CONFORMER_ID>
032DD2AB00000003

>  <PUBCHEM_MMFF94_ENERGY>
53.9765

>  <PUBCHEM_FEATURE_SELFOVERLAP>
30.447

>  <PUBCHEM_SHAPE_FINGERPRINT>
10498660 4 18186793656568970013
11471102 20 18343868827404220508
11543360 7 18272930544097334719
11615757 297 17418100931347530882
12236239 1 15285357340598316186
12251169 10 9007049171588598963
12553582 1 14549019888139468431
12596602 18 14779558901845363500
12670546 177 18343865515198627438
12916748 109 17894916230491336771
13533116 47 17677041356890977658
14573314 32 18408323297976960420
15196674 1 18411417314896986933
15536298 74 18411979169696914893
15961568 22 17968658341026952084
17834072 33 18343018912820290230
18186145 218 18186513289872682341
200 152 17418375787573929595
20300324 65 18411982455726431629
20645477 56 18333735715088917527
20645477 70 18130795546994412126
221357 26 18343018874155359589
22289505 5 18412822469751927324
23402539 116 18334571356346744710
23402655 69 18344146986091302188
23557571 272 18116156756171367019
23559900 14 18409448077140191530
23596394 208 18343586235340621062
351380 180 18409728456783995806
3545911 37 18410294730736220589
4028521 119 18261107457183304509
474 4 17604153726416494516
4990 188 18410855447538814950
5104073 3 18411982450983137235
5281201 14 18342181046442271804
633830 44 18333724706939992911
77779 3 18342176661143505887
9709674 26 18336266854810932595

>  <PUBCHEM_SHAPE_MULTIPOLES>
349.62
10.76
1.85
1.05
0.97
0.45
-0.25
0.58
3.14
-0.66
0.1
-0.08
-0.22
0.78

>  <PUBCHEM_SHAPE_SELFOVERLAP>
716.197

>  <PUBCHEM_SHAPE_VOLUME>
198.3

>  <PUBCHEM_COORDINATE_TYPE>
2
5
10

$$$$
