53334734
 OpenBabel01182520543D

 36 37  0  0  0  0  0  0  0  0999 V2000
    1.8120   -1.7257   -1.5719 O   0  0  0  0  0  0  0  0  0  0  0  0
    0.9807   -1.4414    0.5752 N   0  0  0  0  0  0  0  0  0  0  0  0
    3.6819    1.9981    0.4424 N   0  0  0  0  0  0  0  0  0  0  0  0
    1.3647    1.5235    0.2837 N   0  0  0  0  0  0  0  0  0  0  0  0
   -1.3915   -1.7162   -0.0451 C   0  0  0  0  0  0  0  0  0  0  0  0
   -1.9362   -0.6019    0.8585 C   0  0  0  0  0  0  0  0  0  0  0  0
   -0.1086   -2.3716    0.4624 C   0  0  0  0  0  0  0  0  0  0  0  0
   -3.2223    0.0105    0.3638 C   0  0  0  0  0  0  0  0  0  0  0  0
   -3.1869    1.1109   -0.4926 C   0  0  0  0  0  0  0  0  0  0  0  0
   -4.4475   -0.5237    0.7628 C   0  0  0  0  0  0  0  0  0  0  0  0
    1.8655   -1.1908   -0.4675 C   0  0  0  0  0  0  0  0  0  0  0  0
    2.9543   -0.2210   -0.1830 C   0  0  0  0  0  0  0  0  0  0  0  0
   -4.3769    1.6774   -0.9499 C   0  0  0  0  0  0  0  0  0  0  0  0
   -5.6373    0.0426    0.3055 C   0  0  0  0  0  0  0  0  0  0  0  0
   -5.6019    1.1432   -0.5508 C   0  0  0  0  0  0  0  0  0  0  0  0
    2.7117    1.0938    0.1808 C   0  0  0  0  0  0  0  0  0  0  0  0
    4.2780   -0.6344   -0.2845 C   0  0  0  0  0  0  0  0  0  0  0  0
    5.3041    0.2668   -0.0230 C   0  0  0  0  0  0  0  0  0  0  0  0
    4.9563    1.5599    0.3334 C   0  0  0  0  0  0  0  0  0  0  0  0
   -2.1563   -2.4950   -0.1581 H   0  0  0  0  0  0  0  0  0  0  0  0
   -1.2158   -1.3086   -1.0493 H   0  0  0  0  0  0  0  0  0  0  0  0
   -1.1893    0.1926    0.9731 H   0  0  0  0  0  0  0  0  0  0  0  0
   -2.0944   -0.9982    1.8702 H   0  0  0  0  0  0  0  0  0  0  0  0
    0.1808   -3.1843   -0.2129 H   0  0  0  0  0  0  0  0  0  0  0  0
   -0.2721   -2.8034    1.4555 H   0  0  0  0  0  0  0  0  0  0  0  0
    1.1041   -0.9557    1.4591 H   0  0  0  0  0  0  0  0  0  0  0  0
   -2.2383    1.5345   -0.8117 H   0  0  0  0  0  0  0  0  0  0  0  0
   -4.4879   -1.3821    1.4280 H   0  0  0  0  0  0  0  0  0  0  0  0
   -4.3494    2.5339   -1.6171 H   0  0  0  0  0  0  0  0  0  0  0  0
   -6.5913   -0.3735    0.6156 H   0  0  0  0  0  0  0  0  0  0  0  0
   -6.5284    1.5840   -0.9071 H   0  0  0  0  0  0  0  0  0  0  0  0
    4.5232   -1.6553   -0.5649 H   0  0  0  0  0  0  0  0  0  0  0  0
    6.3431   -0.0333   -0.0956 H   0  0  0  0  0  0  0  0  0  0  0  0
    5.7192    2.3011    0.5477 H   0  0  0  0  0  0  0  0  0  0  0  0
    1.2178    2.4880    0.5560 H   0  0  0  0  0  0  0  0  0  0  0  0
    0.6745    1.0977   -0.3227 H   0  0  0  0  0  0  0  0  0  0  0  0
  1 11  2  0  0  0  0
  2  7  1  0  0  0  0
  2 11  1  0  0  0  0
  2 26  1  0  0  0  0
  3 16  1  0  0  0  0
  3 19  2  0  0  0  0
  4 16  1  0  0  0  0
  4 35  1  0  0  0  0
  4 36  1  0  0  0  0
  5  6  1  0  0  0  0
  5  7  1  0  0  0  0
  5 20  1  0  0  0  0
  5 21  1  0  0  0  0
  6  8  1  0  0  0  0
  6 22  1  0  0  0  0
  6 23  1  0  0  0  0
  7 24  1  0  0  0  0
  7 25  1  0  0  0  0
  8  9  2  0  0  0  0
  8 10  1  0  0  0  0
  9 13  1  0  0  0  0
  9 27  1  0  0  0  0
 10 14  2  0  0  0  0
 10 28  1  0  0  0  0
 11 12  1  0  0  0  0
 12 16  2  0  0  0  0
 12 17  1  0  0  0  0
 13 15  2  0  0  0  0
 13 29  1  0  0  0  0
 14 15  1  0  0  0  0
 14 30  1  0  0  0  0
 15 31  1  0  0  0  0
 17 18  2  0  0  0  0
 17 32  1  0  0  0  0
 18 19  1  0  0  0  0
 18 33  1  0  0  0  0
 19 34  1  0  0  0  0
M  END
>  <PUBCHEM_COMPOUND_CID>
53334734

>  <PUBCHEM_CONFORMER_RMSD>
0.8

>  <PUBCHEM_CONFORMER_DIVERSEORDER>
3
47
40
30
54
29
44
37
66
55
63
28
46
32
56
9
42
50
45
35
25
36
51
20
49
13
18
59
17
64
58
21
22
65
53
33
26
12
16
15
34
60
1
38
24
11
39
2
6
27
5
31
52
23
43
62
4
48
61
57
8
10
14
19
41
7

>  <PUBCHEM_MMFF94_PARTIAL_CHARGES>
29
1 -0.57
10 -0.15
11 0.54
12 0.09
13 -0.15
14 -0.15
15 -0.15
16 0.41
17 -0.15
18 -0.15
19 0.16
2 -0.73
26 0.37
27 0.15
28 0.15
29 0.15
3 -0.62
30 0.15
31 0.15
32 0.15
33 0.15
34 0.15
35 0.4
36 0.4
4 -0.9
6 0.14
7 0.3
8 -0.14
9 -0.15

>  <PUBCHEM_EFFECTIVE_ROTOR_COUNT>
6

>  <PUBCHEM_PHARMACOPHORE_FEATURES>
7
1 1 acceptor
1 2 donor
1 3 acceptor
1 4 cation
1 4 donor
6 3 12 16 17 18 19 rings
6 8 9 10 13 14 15 rings

>  <PUBCHEM_HEAVY_ATOM_COUNT>
19

>  <PUBCHEM_ATOM_DEF_STEREO_COUNT>
0

>  <PUBCHEM_ATOM_UDEF_STEREO_COUNT>
0

>  <PUBCHEM_BOND_DEF_STEREO_COUNT>
0

>  <PUBCHEM_BOND_UDEF_STEREO_COUNT>
0

>  <PUBCHEM_ISOTOPIC_ATOM_COUNT>
0

>  <PUBCHEM_COMPONENT_COUNT>
1

>  <PUBCHEM_CACTVS_TAUTO_COUNT>
7

>  <PUBCHEM_CONFORMER_ID>
032DD2CE00000003

>  <PUBCHEM_MMFF94_ENERGY>
52.6005

>  <PUBCHEM_FEATURE_SELFOVERLAP>
35.522

>  <PUBCHEM_SHAPE_FINGERPRINT>
10498660 4 18334575694738519093
11128504 68 16343698846219766545
11646440 116 18272096010635258625
12236239 1 16702305628849971313
12403259 415 18335148574403036687
12596602 18 15140973884406881997
12670546 177 18131625695421610167
12730499 353 18412835672191472051
12769317 202 18342168951598075467
13103583 49 12829493597789394957
13402501 40 18408039611097919037
14123255 352 18408040723261781430
14251764 38 18335146375412027525
15196674 1 18410293639772257931
15537594 2 14117801302256455567
17834072 8 18343591741863046022
19489759 90 17167863071856189267
20567600 254 18114454609266265255
20645477 56 18409737274262703331
21033648 29 18336259128112435672
21315764 268 18186513315352907724
221357 26 18272652307584117393
22289505 5 18270679766549033036
231179 274 18408605850985434314
23227448 37 18341330101984165975
23402655 69 18131633378569274783
23559900 14 18271248209834886182
2838139 119 18412536622076321284
2916195 48 18408884061665511891
335352 9 18411983560066049790
351380 180 18408323285002426483
3524813 1 18335415759981609013
3545911 37 18413394249730652715
4028521 119 18412827988346688931
4072396 5 18342166749124170298
4325135 7 18130786798404603447
495365 180 17632005455733832776
5104073 3 17896324619567408385
59682541 52 17417545609408982980
59755656 520 17967247619799326706
6328613 192 18188501267590110156
9981440 41 17603590695254470619

>  <PUBCHEM_SHAPE_MULTIPOLES>
370.2
13.58
2.19
0.93
4.63
0.27
-0.16
-6.57
-0.22
-0.59
-0.07
0.21
0.13
1.46

>  <PUBCHEM_SHAPE_SELFOVERLAP>
778.116

>  <PUBCHEM_SHAPE_VOLUME>
206.6

>  <PUBCHEM_COORDINATE_TYPE>
2
5
10

$$$$
