53388495
 OpenBabel01182520543D

 43 43  0  0  0  0  0  0  0  0999 V2000
    0.3841   -1.2416   -1.6558 O   0  0  0  0  0  0  0  0  0  0  0  0
    4.5523   -0.1104   -0.1194 N   0  0  0  0  0  0  0  0  0  0  0  0
    0.9304    0.6745   -0.4679 N   0  0  0  0  0  0  0  0  0  0  0  0
   -5.3479    0.1728    0.5659 N   0  0  0  0  0  0  0  0  0  0  0  0
   -3.5021   -1.1867   -0.0835 N   0  0  0  0  0  0  0  0  0  0  0  0
    3.1345   -0.1051    0.2394 C   0  0  0  0  0  0  0  0  0  0  0  0
    5.1806    1.1543    0.2608 C   0  0  0  0  0  0  0  0  0  0  0  0
    5.2369   -1.2337    0.5195 C   0  0  0  0  0  0  0  0  0  0  0  0
    2.3320    0.6806   -0.7873 C   0  0  0  0  0  0  0  0  0  0  0  0
    6.6401    1.1904   -0.1596 C   0  0  0  0  0  0  0  0  0  0  0  0
    5.1862   -1.1182    2.0336 C   0  0  0  0  0  0  0  0  0  0  0  0
    0.0583   -0.3015   -0.9359 C   0  0  0  0  0  0  0  0  0  0  0  0
   -1.3650   -0.1516   -0.5377 C   0  0  0  0  0  0  0  0  0  0  0  0
   -1.9016    1.0990   -0.2514 C   0  0  0  0  0  0  0  0  0  0  0  0
   -3.9883    0.0454    0.1873 C   0  0  0  0  0  0  0  0  0  0  0  0
   -2.1996   -1.2531   -0.4398 C   0  0  0  0  0  0  0  0  0  0  0  0
   -3.2374    1.2079    0.1189 C   0  0  0  0  0  0  0  0  0  0  0  0
   -6.1923   -0.9982    0.6503 C   0  0  0  0  0  0  0  0  0  0  0  0
   -5.9012    1.4754    0.8627 C   0  0  0  0  0  0  0  0  0  0  0  0
    2.9527    0.3067    1.2408 H   0  0  0  0  0  0  0  0  0  0  0  0
    2.7391   -1.1301    0.2479 H   0  0  0  0  0  0  0  0  0  0  0  0
    4.6948    1.9744   -0.2802 H   0  0  0  0  0  0  0  0  0  0  0  0
    5.0797    1.4039    1.3230 H   0  0  0  0  0  0  0  0  0  0  0  0
    4.7560   -2.1726    0.2149 H   0  0  0  0  0  0  0  0  0  0  0  0
    6.2710   -1.3364    0.1741 H   0  0  0  0  0  0  0  0  0  0  0  0
    2.6282    1.7331   -0.8209 H   0  0  0  0  0  0  0  0  0  0  0  0
    2.4716    0.2598   -1.7900 H   0  0  0  0  0  0  0  0  0  0  0  0
    7.0187    2.2157   -0.0804 H   0  0  0  0  0  0  0  0  0  0  0  0
    6.7698    0.8764   -1.2011 H   0  0  0  0  0  0  0  0  0  0  0  0
    7.2774    0.5713    0.4788 H   0  0  0  0  0  0  0  0  0  0  0  0
    5.6390   -2.0191    2.4655 H   0  0  0  0  0  0  0  0  0  0  0  0
    4.1709   -1.0704    2.4369 H   0  0  0  0  0  0  0  0  0  0  0  0
    5.7659   -0.2776    2.4246 H   0  0  0  0  0  0  0  0  0  0  0  0
    0.6023    1.3946    0.1669 H   0  0  0  0  0  0  0  0  0  0  0  0
   -1.3179    2.0111   -0.3317 H   0  0  0  0  0  0  0  0  0  0  0  0
   -1.8434   -2.2579   -0.6457 H   0  0  0  0  0  0  0  0  0  0  0  0
   -3.6168    2.2008    0.3274 H   0  0  0  0  0  0  0  0  0  0  0  0
   -6.2584   -1.4990   -0.3219 H   0  0  0  0  0  0  0  0  0  0  0  0
   -5.7980   -1.7083    1.3855 H   0  0  0  0  0  0  0  0  0  0  0  0
   -7.2139   -0.7492    0.9566 H   0  0  0  0  0  0  0  0  0  0  0  0
   -5.3925    1.9435    1.7130 H   0  0  0  0  0  0  0  0  0  0  0  0
   -5.8587    2.1377   -0.0094 H   0  0  0  0  0  0  0  0  0  0  0  0
   -6.9591    1.4066    1.1416 H   0  0  0  0  0  0  0  0  0  0  0  0
  1 12  2  0  0  0  0
  2  6  1  0  0  0  0
  2  7  1  0  0  0  0
  2  8  1  0  0  0  0
  3  9  1  0  0  0  0
  3 12  1  0  0  0  0
  3 34  1  0  0  0  0
  4 15  1  0  0  0  0
  4 18  1  0  0  0  0
  4 19  1  0  0  0  0
  5 15  2  0  0  0  0
  5 16  1  0  0  0  0
  6  9  1  0  0  0  0
  6 20  1  0  0  0  0
  6 21  1  0  0  0  0
  7 10  1  0  0  0  0
  7 22  1  0  0  0  0
  7 23  1  0  0  0  0
  8 11  1  0  0  0  0
  8 24  1  0  0  0  0
  8 25  1  0  0  0  0
  9 26  1  0  0  0  0
  9 27  1  0  0  0  0
 10 28  1  0  0  0  0
 10 29  1  0  0  0  0
 10 30  1  0  0  0  0
 11 31  1  0  0  0  0
 11 32  1  0  0  0  0
 11 33  1  0  0  0  0
 12 13  1  0  0  0  0
 13 14  1  0  0  0  0
 13 16  2  0  0  0  0
 14 17  2  0  0  0  0
 14 35  1  0  0  0  0
 15 17  1  0  0  0  0
 16 36  1  0  0  0  0
 17 37  1  0  0  0  0
 18 38  1  0  0  0  0
 18 39  1  0  0  0  0
 18 40  1  0  0  0  0
 19 41  1  0  0  0  0
 19 42  1  0  0  0  0
 19 43  1  0  0  0  0
M  END
>  <PUBCHEM_COMPOUND_CID>
53388495

>  <PUBCHEM_CONFORMER_RMSD>
0.8

>  <PUBCHEM_CONFORMER_DIVERSEORDER>
3
73
131
43
22
56
121
114
85
36
130
77
122
57
83
33
99
47
30
128
72
39
59
80
129
98
46
70
124
14
54
100
92
6
8
106
86
29
41
61
78
116
65
89
104
50
93
12
76
7
110
16
68
133
42
117
38
63
90
31
52
75
9
17
67
21
20
35
84
18
51
88
53
45
132
2
48
127
94
125
13
49
26
103
32
105
1
97
108
126
44
71
62
119
113
95
25
27
37
91
11
28
107
24
112
34
109
10
111
66
87
96
4
118
40
64
15
23
123
101
81
120
19
58
82
55
102
79
60
74
69
115
5

>  <PUBCHEM_MMFF94_PARTIAL_CHARGES>
21
1 -0.57
12 0.54
13 0.09
14 -0.15
15 0.41
16 0.16
17 -0.15
18 0.37
19 0.37
2 -0.81
3 -0.73
34 0.37
35 0.15
36 0.15
37 0.15
4 -0.84
5 -0.62
6 0.27
7 0.27
8 0.27
9 0.3

>  <PUBCHEM_EFFECTIVE_ROTOR_COUNT>
8

>  <PUBCHEM_PHARMACOPHORE_FEATURES>
5
1 1 acceptor
1 2 cation
1 3 donor
3 4 5 15 cation
6 5 13 14 15 16 17 rings

>  <PUBCHEM_HEAVY_ATOM_COUNT>
19

>  <PUBCHEM_ATOM_DEF_STEREO_COUNT>
0

>  <PUBCHEM_ATOM_UDEF_STEREO_COUNT>
0

>  <PUBCHEM_BOND_DEF_STEREO_COUNT>
0

>  <PUBCHEM_BOND_UDEF_STEREO_COUNT>
0

>  <PUBCHEM_ISOTOPIC_ATOM_COUNT>
0

>  <PUBCHEM_COMPONENT_COUNT>
1

>  <PUBCHEM_CACTVS_TAUTO_COUNT>
2

>  <PUBCHEM_CONFORMER_ID>
032EA4CF00000003

>  <PUBCHEM_MMFF94_ENERGY>
52.0597

>  <PUBCHEM_FEATURE_SELFOVERLAP>
25.372

>  <PUBCHEM_SHAPE_FINGERPRINT>
10 15 18343025505837676041
10354089 29 18408886261496116228
106641 1 18339365274509910977
11128504 68 10519982664713666498
12107183 9 17759516673779095328
12236239 1 18260267442947202177
12516196 113 17312822688656302924
12596602 18 18334858311765022552
12670543 26 8574717888253722045
12714333 28 12679460876291798727
13073987 5 17894905201321632912
13288520 33 11963389661496405301
13533116 47 17603307059603078464
13551218 46 17968372351490629306
13668630 136 14490192691769819432
13685833 64 15863791698824768088
13914758 101 17385715873625422469
1420 363 14490193808166007745
14251718 22 9439399121262566841
14251764 18 18410292536224164646
14341114 176 18333734606902816212
14341114 328 18409728461084491362
14528608 73 10952045663222119994
15501527 24 9871745793301546477
17844677 252 16877661236769511364
1813 80 16877949295815139750
18222031 100 14923947834331077142
19784866 240 15574722382943591023
20157964 124 12175618491254082274
20281389 69 18343865515314996713
20374829 77 12035449454209513565
20645477 56 17060621092348869797
20871999 31 7925918079899949847
21637258 2 16443059508582367393
220451 1 18186241740628865182
22224240 67 17131834279306616855
23198884 109 12247681565353898673
23402539 116 18413385441427773813
23559900 14 11026093416382992679
2767999 5 16487253253232159249
2838139 119 14117523129508299715
2916195 48 16056591054270791827
312425 54 17748830708904312689
314173 85 15140679163676892076
351380 3 17531242846719906434
3545911 37 16271932618521057500
4325135 7 16153430567506273502
465052 167 17603872191278794386
5104073 3 18410292557466893169
542803 24 17775565347113500444
5758199 1 18114180896028954152
59755656 520 15554448500586549389

>  <PUBCHEM_SHAPE_MULTIPOLES>
365.22
17.37
1.5
1.16
4.96
0.03
-0.14
-1.03
-7.06
0.18
-0.2
0.64
0.35
-1.25

>  <PUBCHEM_SHAPE_SELFOVERLAP>
728.44

>  <PUBCHEM_SHAPE_VOLUME>
217.2

>  <PUBCHEM_COORDINATE_TYPE>
2
5
10

$$$$
