53388501
 OpenBabel01182520543D

 47 47  0  0  0  0  0  0  0  0999 V2000
    0.8061    1.0592    1.7178 O   0  0  0  0  0  0  0  0  0  0  0  0
   -5.1468   -0.1317   -0.4599 N   0  3  0  0  0  0  0  0  0  0  0  0
    4.8636    0.0086   -0.1283 N   0  0  0  0  0  0  0  0  0  0  0  0
   -2.9104   -1.1632   -0.1746 N   0  0  0  0  0  0  0  0  0  0  0  0
    1.2346   -0.7176    0.2910 N   0  0  0  0  0  0  0  0  0  0  0  0
   -3.6627   -0.0427   -0.0961 C   0  0  0  0  0  0  0  0  0  0  0  0
   -5.4229    0.8130   -1.6261 C   0  0  0  0  0  0  0  0  0  0  0  0
   -5.9765    0.2562    0.7608 C   0  0  0  0  0  0  0  0  0  0  0  0
   -5.5541   -1.5417   -0.8825 C   0  0  0  0  0  0  0  0  0  0  0  0
    3.4376    0.0818   -0.4194 C   0  0  0  0  0  0  0  0  0  0  0  0
    2.6552   -0.7978    0.5448 C   0  0  0  0  0  0  0  0  0  0  0  0
    5.6197    0.8821   -1.0279 C   0  0  0  0  0  0  0  0  0  0  0  0
    5.3432   -1.3703   -0.2391 C   0  0  0  0  0  0  0  0  0  0  0  0
   -3.1743    1.1933    0.2959 C   0  0  0  0  0  0  0  0  0  0  0  0
   -1.0212    0.1543    0.5601 C   0  0  0  0  0  0  0  0  0  0  0  0
   -1.8273    1.2853    0.6285 C   0  0  0  0  0  0  0  0  0  0  0  0
   -1.6058   -1.0352    0.1564 C   0  0  0  0  0  0  0  0  0  0  0  0
    0.3893    0.2175    0.9012 C   0  0  0  0  0  0  0  0  0  0  0  0
    5.1386    2.3199   -0.9298 C   0  0  0  0  0  0  0  0  0  0  0  0
    6.8143   -1.4710    0.1272 C   0  0  0  0  0  0  0  0  0  0  0  0
   -6.4666    0.6817   -1.9296 H   0  0  0  0  0  0  0  0  0  0  0  0
   -5.2711    1.8488   -1.3106 H   0  0  0  0  0  0  0  0  0  0  0  0
   -4.7550    0.5522   -2.4533 H   0  0  0  0  0  0  0  0  0  0  0  0
   -7.0334    0.1173    0.5113 H   0  0  0  0  0  0  0  0  0  0  0  0
   -5.6973   -0.3958    1.5947 H   0  0  0  0  0  0  0  0  0  0  0  0
   -5.8030    1.3067    1.0096 H   0  0  0  0  0  0  0  0  0  0  0  0
   -6.6207   -1.5358   -1.1286 H   0  0  0  0  0  0  0  0  0  0  0  0
   -4.9694   -1.8270   -1.7628 H   0  0  0  0  0  0  0  0  0  0  0  0
   -5.3671   -2.2261   -0.0490 H   0  0  0  0  0  0  0  0  0  0  0  0
    3.0541    1.0991   -0.2870 H   0  0  0  0  0  0  0  0  0  0  0  0
    3.2204   -0.2108   -1.4556 H   0  0  0  0  0  0  0  0  0  0  0  0
    2.8781   -1.8610    0.4293 H   0  0  0  0  0  0  0  0  0  0  0  0
    2.8474   -0.5110    1.5850 H   0  0  0  0  0  0  0  0  0  0  0  0
    5.5619    0.5453   -2.0706 H   0  0  0  0  0  0  0  0  0  0  0  0
    6.6770    0.9044   -0.7446 H   0  0  0  0  0  0  0  0  0  0  0  0
    5.1778   -1.7855   -1.2411 H   0  0  0  0  0  0  0  0  0  0  0  0
    4.8429   -2.0248    0.4793 H   0  0  0  0  0  0  0  0  0  0  0  0
   -3.7884    2.0843    0.3551 H   0  0  0  0  0  0  0  0  0  0  0  0
    0.8643   -1.3521   -0.4090 H   0  0  0  0  0  0  0  0  0  0  0  0
   -1.4223    2.2460    0.9352 H   0  0  0  0  0  0  0  0  0  0  0  0
   -1.0577   -1.9699    0.1017 H   0  0  0  0  0  0  0  0  0  0  0  0
    4.1849    2.4790   -1.4427 H   0  0  0  0  0  0  0  0  0  0  0  0
    5.0458    2.6492    0.1108 H   0  0  0  0  0  0  0  0  0  0  0  0
    5.8647    2.9817   -1.4158 H   0  0  0  0  0  0  0  0  0  0  0  0
    7.4689   -1.0796   -0.6576 H   0  0  0  0  0  0  0  0  0  0  0  0
    7.0358   -0.9537    1.0671 H   0  0  0  0  0  0  0  0  0  0  0  0
    7.0879   -2.5237    0.2628 H   0  0  0  0  0  0  0  0  0  0  0  0
  1 18  2  0  0  0  0
  2  6  1  0  0  0  0
  2  7  1  0  0  0  0
  2  8  1  0  0  0  0
  2  9  1  0  0  0  0
  3 10  1  0  0  0  0
  3 12  1  0  0  0  0
  3 13  1  0  0  0  0
  4  6  2  0  0  0  0
  4 17  1  0  0  0  0
  5 11  1  0  0  0  0
  5 18  1  0  0  0  0
  5 39  1  0  0  0  0
  6 14  1  0  0  0  0
  7 21  1  0  0  0  0
  7 22  1  0  0  0  0
  7 23  1  0  0  0  0
  8 24  1  0  0  0  0
  8 25  1  0  0  0  0
  8 26  1  0  0  0  0
  9 27  1  0  0  0  0
  9 28  1  0  0  0  0
  9 29  1  0  0  0  0
 10 11  1  0  0  0  0
 10 30  1  0  0  0  0
 10 31  1  0  0  0  0
 11 32  1  0  0  0  0
 11 33  1  0  0  0  0
 12 19  1  0  0  0  0
 12 34  1  0  0  0  0
 12 35  1  0  0  0  0
 13 20  1  0  0  0  0
 13 36  1  0  0  0  0
 13 37  1  0  0  0  0
 14 16  2  0  0  0  0
 14 38  1  0  0  0  0
 15 16  1  0  0  0  0
 15 17  2  0  0  0  0
 15 18  1  0  0  0  0
 16 40  1  0  0  0  0
 17 41  1  0  0  0  0
 19 42  1  0  0  0  0
 19 43  1  0  0  0  0
 19 44  1  0  0  0  0
 20 45  1  0  0  0  0
 20 46  1  0  0  0  0
 20 47  1  0  0  0  0
M  CHG  1   2   1
M  END
>  <PUBCHEM_COMPOUND_CID>
53388501

>  <PUBCHEM_CONFORMER_RMSD>
0.8

>  <PUBCHEM_CONFORMER_DIVERSEORDER>
8
125
95
38
100
96
73
43
115
114
54
104
48
40
130
39
112
41
66
89
33
70
108
7
85
56
111
124
46
55
123
118
82
26
31
12
28
10
103
6
132
20
98
61
49
83
32
97
88
75
59
102
44
126
74
131
90
17
9
62
67
127
105
113
92
129
63
13
128
1
78
60
53
24
68
80
107
19
110
71
116
52
35
87
4
77
99
47
65
109
57
3
86
27
21
29
2
106
23
72
45
117
50
36
64
16
91
79
81
42
34
84
76
22
11
94
69
14
25
5
101
37
58
120
93
119
18
15
121
30
51
122

>  <PUBCHEM_MMFF94_PARTIAL_CHARGES>
22
1 -0.57
10 0.27
11 0.3
12 0.27
13 0.27
14 -0.15
15 0.09
16 -0.15
17 0.16
18 0.54
2 -0.87
3 -0.81
38 0.15
39 0.37
4 -0.62
40 0.15
41 0.15
5 -0.73
6 0.67
7 0.5
8 0.5
9 0.5

>  <PUBCHEM_EFFECTIVE_ROTOR_COUNT>
8

>  <PUBCHEM_PHARMACOPHORE_FEATURES>
5
1 1 acceptor
1 3 cation
1 5 donor
3 2 4 6 cation
6 4 6 14 15 16 17 rings

>  <PUBCHEM_HEAVY_ATOM_COUNT>
20

>  <PUBCHEM_ATOM_DEF_STEREO_COUNT>
0

>  <PUBCHEM_ATOM_UDEF_STEREO_COUNT>
0

>  <PUBCHEM_BOND_DEF_STEREO_COUNT>
0

>  <PUBCHEM_BOND_UDEF_STEREO_COUNT>
0

>  <PUBCHEM_ISOTOPIC_ATOM_COUNT>
0

>  <PUBCHEM_COMPONENT_COUNT>
1

>  <PUBCHEM_CACTVS_TAUTO_COUNT>
2

>  <PUBCHEM_CONFORMER_ID>
032EA4D500000008

>  <PUBCHEM_MMFF94_ENERGY>
53.1349

>  <PUBCHEM_FEATURE_SELFOVERLAP>
25.372

>  <PUBCHEM_SHAPE_FINGERPRINT>
10 15 7925627834678875607
10595046 47 18411139134492105404
10670039 82 14779542328252305854
10968037 39 18342176678465864727
11089746 13 17821728308772848516
11128504 68 18335139808300900052
11315181 36 17988925565271445123
11524674 6 15410892977156882071
12166972 35 18187369826679758836
12236239 1 18408042913705723455
12516196 113 14117514346537627418
13288520 33 17918272039604065027
13533116 47 18334576816067985242
13551218 46 10015595986195968420
13631057 29 14562826494995410721
13785724 45 7923985160376878376
13862211 1 17275097332094474847
14251718 22 18408322211492782591
14251752 14 18336540526027219247
14251764 18 8214141842065509612
14528608 73 18333170583249782044
15183329 4 18334854987433772780
17093844 174 15267338497209282675
17834072 33 18410856572730439452
1813 80 14620803712572566480
18222031 100 16056885740946739112
200 152 16917347039474422915
20157964 124 18261114089256270708
20374829 77 17918272056488645435
20567600 75 12823026287211000761
20645477 56 12396300352772353659
20871999 31 18342174432330123793
21150785 3 18041272262468172527
21267235 1 18201998872454000631
23035841 295 18202002123200742931
23081809 10 18131074826741525040
23198884 109 17894347774569326367
23402539 116 18131068208518818025
23522609 53 17986701283604116593
23536379 177 18260267434473305514
23559900 14 18129369548742377393
2767999 5 14634866461479661685
2916195 48 16805321123682264853
29717793 49 18342179938852522782
3004659 81 18412826859619869346
312425 54 12751242523123710671
314173 85 15554452894079474074
34797466 226 18334301984619366892
3545911 37 17022626364133711746
4325135 7 18343304769185817204
54446538 1 18335139769999622340
59755656 520 15936130767929331643

>  <PUBCHEM_SHAPE_MULTIPOLES>
385.8
17.9
1.68
1.15
8.58
0.36
-0.02
-1.67
-5.77
1.7
-0.31
-0.69
0.31
-1.01

>  <PUBCHEM_SHAPE_SELFOVERLAP>
764.211

>  <PUBCHEM_SHAPE_VOLUME>
231.7

>  <PUBCHEM_COORDINATE_TYPE>
2
5
10

$$$$
