5371876
 OpenBabel01182520543D

 28 29  0  0  0  0  0  0  0  0999 V2000
    0.2126    2.2362    0.0335 O   0  0  0  0  0  0  0  0  0  0  0  0
   -0.5889    0.0445   -0.1784 N   0  0  0  0  0  0  0  0  0  0  0  0
   -4.2359   -0.0985    0.1799 N   0  0  0  0  0  0  0  0  0  0  0  0
    0.9422   -1.7835   -0.2046 N   0  0  0  0  0  0  0  0  0  0  0  0
    3.2351   -1.4178   -0.0199 N   0  0  0  0  0  0  0  0  0  0  0  0
    1.7831    0.5019    0.0179 C   0  0  0  0  0  0  0  0  0  0  0  0
    0.4014    1.0254   -0.0400 C   0  0  0  0  0  0  0  0  0  0  0  0
    1.9979   -0.8701   -0.0661 C   0  0  0  0  0  0  0  0  0  0  0  0
   -1.9134    0.4141   -0.2427 C   0  0  0  0  0  0  0  0  0  0  0  0
   -0.2560   -1.2998   -0.2523 C   0  0  0  0  0  0  0  0  0  0  0  0
   -2.9051   -0.3662    0.1964 C   0  0  0  0  0  0  0  0  0  0  0  0
    2.8796    1.3514    0.1548 C   0  0  0  0  0  0  0  0  0  0  0  0
   -4.7590    1.1559   -0.3560 C   0  0  0  0  0  0  0  0  0  0  0  0
   -5.2303   -1.1315    0.4604 C   0  0  0  0  0  0  0  0  0  0  0  0
    4.1568    0.8071    0.2039 C   0  0  0  0  0  0  0  0  0  0  0  0
    4.2799   -0.5690    0.1134 C   0  0  0  0  0  0  0  0  0  0  0  0
   -2.1004    1.4335   -0.5633 H   0  0  0  0  0  0  0  0  0  0  0  0
   -1.0826   -2.0070   -0.4020 H   0  0  0  0  0  0  0  0  0  0  0  0
   -2.7138   -1.3474    0.6155 H   0  0  0  0  0  0  0  0  0  0  0  0
    2.7581    2.4283    0.2240 H   0  0  0  0  0  0  0  0  0  0  0  0
   -4.5585    1.2289   -1.4305 H   0  0  0  0  0  0  0  0  0  0  0  0
   -4.3096    2.0159    0.1525 H   0  0  0  0  0  0  0  0  0  0  0  0
   -5.8430    1.2337   -0.2166 H   0  0  0  0  0  0  0  0  0  0  0  0
   -4.8364   -1.9012    1.1336 H   0  0  0  0  0  0  0  0  0  0  0  0
   -5.5434   -1.6142   -0.4712 H   0  0  0  0  0  0  0  0  0  0  0  0
   -6.1138   -0.7032    0.9459 H   0  0  0  0  0  0  0  0  0  0  0  0
    5.0299    1.4407    0.3098 H   0  0  0  0  0  0  0  0  0  0  0  0
    5.2559   -1.0421    0.1468 H   0  0  0  0  0  0  0  0  0  0  0  0
  1  7  2  0  0  0  0
  2  7  1  0  0  0  0
  2  9  1  0  0  0  0
  2 10  1  0  0  0  0
  3 11  1  0  0  0  0
  3 13  1  0  0  0  0
  3 14  1  0  0  0  0
  4  8  1  0  0  0  0
  4 10  2  0  0  0  0
  5  8  1  0  0  0  0
  5 16  2  0  0  0  0
  6  7  1  0  0  0  0
  6  8  2  0  0  0  0
  6 12  1  0  0  0  0
  9 11  2  0  0  0  0
  9 17  1  0  0  0  0
 10 18  1  0  0  0  0
 11 19  1  0  0  0  0
 12 15  2  0  0  0  0
 12 20  1  0  0  0  0
 13 21  1  0  0  0  0
 13 22  1  0  0  0  0
 13 23  1  0  0  0  0
 14 24  1  0  0  0  0
 14 25  1  0  0  0  0
 14 26  1  0  0  0  0
 15 16  1  0  0  0  0
 15 27  1  0  0  0  0
 16 28  1  0  0  0  0
M  END
>  <PUBCHEM_COMPOUND_CID>
5371876

>  <PUBCHEM_CONFORMER_RMSD>
0.6

>  <PUBCHEM_CONFORMER_DIVERSEORDER>
1
3
2
4

>  <PUBCHEM_MMFF94_PARTIAL_CHARGES>
22
1 -0.57
10 0.45
11 -0.05
12 -0.15
13 0.37
14 0.37
15 -0.15
16 0.16
17 0.15
18 0.06
19 0.15
2 -0.23
20 0.15
27 0.15
28 0.15
3 -0.84
4 -0.63
5 -0.62
6 0.09
7 0.54
8 0.49
9 -0.04

>  <PUBCHEM_EFFECTIVE_ROTOR_COUNT>
2

>  <PUBCHEM_PHARMACOPHORE_FEATURES>
5
1 1 acceptor
1 3 cation
1 5 acceptor
6 2 4 6 7 8 10 rings
6 5 6 8 12 15 16 rings

>  <PUBCHEM_HEAVY_ATOM_COUNT>
16

>  <PUBCHEM_ATOM_DEF_STEREO_COUNT>
0

>  <PUBCHEM_ATOM_UDEF_STEREO_COUNT>
0

>  <PUBCHEM_BOND_DEF_STEREO_COUNT>
1

>  <PUBCHEM_BOND_UDEF_STEREO_COUNT>
0

>  <PUBCHEM_ISOTOPIC_ATOM_COUNT>
0

>  <PUBCHEM_COMPONENT_COUNT>
1

>  <PUBCHEM_CACTVS_TAUTO_COUNT>
1

>  <PUBCHEM_CONFORMER_ID>
0051F7E400000001

>  <PUBCHEM_MMFF94_ENERGY>
53.4674

>  <PUBCHEM_FEATURE_SELFOVERLAP>
25.407

>  <PUBCHEM_SHAPE_FINGERPRINT>
11471102 20 18412259528087428788
11806522 49 18410293635888825143
12032990 46 18410014308073983190
12236239 1 17632858629369849919
13140716 1 18267856371571773194
13675066 3 18412542136977768497
13862211 1 18411412916850514814
14251717 144 18413107259999999263
14252887 29 18130797736805260150
15196674 1 18410573976830580873
15375358 24 18334576832735950155
16945 1 18340476812557682094
17834072 33 18201715189272957551
200 152 18130782361555323061
20645477 70 18341049627360451247
21267235 1 18411990143691803518
21452121 103 18271513274141985840
22854114 59 18411982468342295203
23402539 116 18201429285678517142
23402655 69 18272086080702212901
23557571 272 17240479152886012045
23559900 14 18262516992409352186
2748010 2 18124307200077158348
33824 294 18409166602000236530
42 15 18408042909674474129
4214541 1 18408886222646043249
4990 188 17917439726080852918
5104073 3 18410293593034059665
537710 114 18411423933821320300
69090 78 18343015618475132303
77779 3 18409449180904419625

>  <PUBCHEM_SHAPE_MULTIPOLES>
303.48
9.81
1.74
0.63
8.73
0.16
-0.01
-0.48
-0.95
-0.37
0.04
0.11
-0.01
0.44

>  <PUBCHEM_SHAPE_SELFOVERLAP>
646.271

>  <PUBCHEM_SHAPE_VOLUME>
168.6

>  <PUBCHEM_COORDINATE_TYPE>
2
5
10

$$$$
