53833611
 OpenBabel01182520543D

 37 37  0  0  0  0  0  0  0  0999 V2000
   -0.6349   -0.2654   -1.8206 O   0  0  0  0  0  0  0  0  0  0  0  0
   -0.5530   -1.5749    0.0926 N   0  0  0  0  0  0  0  0  0  0  0  0
   -4.5406   -0.4706    0.8406 N   0  0  0  0  0  0  0  0  0  0  0  0
   -6.2052    1.2337    0.8023 N   0  0  0  0  0  0  0  0  0  0  0  0
    3.8476    0.1427    0.3114 C   0  0  0  0  0  0  0  0  0  0  0  0
    0.7408   -2.1493   -0.1467 C   0  0  0  0  0  0  0  0  0  0  0  0
    5.9278    1.5395   -0.2325 C   0  0  0  0  0  0  0  0  0  0  0  0
    4.7785    0.6216   -0.5403 C   0  0  0  0  0  0  0  0  0  0  0  0
    2.7865   -0.7152   -0.2184 C   0  0  0  0  0  0  0  0  0  0  0  0
    1.7838   -1.2773    0.4766 C   0  0  0  0  0  0  0  0  0  0  0  0
   -2.4759   -0.1434   -0.3737 C   0  0  0  0  0  0  0  0  0  0  0  0
   -1.1450   -0.6654   -0.7776 C   0  0  0  0  0  0  0  0  0  0  0  0
    3.8472    0.4273    1.7907 C   0  0  0  0  0  0  0  0  0  0  0  0
    7.1749    0.7592    0.1504 C   0  0  0  0  0  0  0  0  0  0  0  0
   -2.9148    1.1062   -0.7976 C   0  0  0  0  0  0  0  0  0  0  0  0
   -3.3190   -0.8860    0.4370 C   0  0  0  0  0  0  0  0  0  0  0  0
   -4.1656    1.5682   -0.4032 C   0  0  0  0  0  0  0  0  0  0  0  0
   -4.9331    0.7490    0.4089 C   0  0  0  0  0  0  0  0  0  0  0  0
    0.7577   -3.1389    0.3206 H   0  0  0  0  0  0  0  0  0  0  0  0
    0.8936   -2.2744   -1.2239 H   0  0  0  0  0  0  0  0  0  0  0  0
    6.1354    2.1497   -1.1197 H   0  0  0  0  0  0  0  0  0  0  0  0
    5.6683    2.2465    0.5624 H   0  0  0  0  0  0  0  0  0  0  0  0
    4.7169    0.3426   -1.5925 H   0  0  0  0  0  0  0  0  0  0  0  0
    2.8237   -0.9069   -1.2903 H   0  0  0  0  0  0  0  0  0  0  0  0
    1.6999   -1.1251    1.5494 H   0  0  0  0  0  0  0  0  0  0  0  0
   -1.0023   -1.8098    0.9715 H   0  0  0  0  0  0  0  0  0  0  0  0
    3.8947   -0.5054    2.3637 H   0  0  0  0  0  0  0  0  0  0  0  0
    4.7006    1.0306    2.1115 H   0  0  0  0  0  0  0  0  0  0  0  0
    2.9415    0.9727    2.0777 H   0  0  0  0  0  0  0  0  0  0  0  0
    8.0057    1.4461    0.3415 H   0  0  0  0  0  0  0  0  0  0  0  0
    7.4781    0.0783   -0.6522 H   0  0  0  0  0  0  0  0  0  0  0  0
    7.0125    0.1664    1.0568 H   0  0  0  0  0  0  0  0  0  0  0  0
   -2.2945    1.7340   -1.4314 H   0  0  0  0  0  0  0  0  0  0  0  0
   -3.0674   -1.8807    0.7895 H   0  0  0  0  0  0  0  0  0  0  0  0
   -4.5145    2.5424   -0.7299 H   0  0  0  0  0  0  0  0  0  0  0  0
   -6.3396    2.2351    0.8695 H   0  0  0  0  0  0  0  0  0  0  0  0
   -6.7601    0.6344    1.4007 H   0  0  0  0  0  0  0  0  0  0  0  0
  1 12  2  0  0  0  0
  2  6  1  0  0  0  0
  2 12  1  0  0  0  0
  2 26  1  0  0  0  0
  3 16  1  0  0  0  0
  3 18  2  0  0  0  0
  4 18  1  0  0  0  0
  4 36  1  0  0  0  0
  4 37  1  0  0  0  0
  5  8  2  3  0  0  0
  5  9  1  0  0  0  0
  5 13  1  0  0  0  0
  6 10  1  0  0  0  0
  6 19  1  0  0  0  0
  6 20  1  0  0  0  0
  7  8  1  0  0  0  0
  7 14  1  0  0  0  0
  7 21  1  0  0  0  0
  7 22  1  0  0  0  0
  8 23  1  0  0  0  0
  9 10  2  3  0  0  0
  9 24  1  0  0  0  0
 10 25  1  0  0  0  0
 11 12  1  0  0  0  0
 11 15  1  0  0  0  0
 11 16  2  0  0  0  0
 13 27  1  0  0  0  0
 13 28  1  0  0  0  0
 13 29  1  0  0  0  0
 14 30  1  0  0  0  0
 14 31  1  0  0  0  0
 14 32  1  0  0  0  0
 15 17  2  0  0  0  0
 15 33  1  0  0  0  0
 16 34  1  0  0  0  0
 17 18  1  0  0  0  0
 17 35  1  0  0  0  0
M  END
>  <PUBCHEM_COMPOUND_CID>
53833611

>  <PUBCHEM_CONFORMER_RMSD>
0.8

>  <PUBCHEM_CONFORMER_DIVERSEORDER>
1
69
66
45
33
22
71
38
34
19
55
11
70
62
35
65
46
68
12
37
30
61
36
48
41
58
25
50
54
39
67
43
72
17
20
4
73
29
28
3
6
47
56
59
44
49
13
40
57
8
42
60
52
32
74
16
2
24
10
5
27
63
18
21
14
64
7
26
15
23
53
31
51
9

>  <PUBCHEM_MMFF94_PARTIAL_CHARGES>
26
1 -0.57
10 -0.29
11 0.09
12 0.54
13 0.14
15 -0.15
16 0.16
17 -0.15
18 0.41
2 -0.73
23 0.15
24 0.15
25 0.15
26 0.37
3 -0.62
33 0.15
34 0.15
35 0.15
36 0.4
37 0.4
4 -0.9
5 -0.14
6 0.44
7 0.14
8 -0.29
9 -0.15

>  <PUBCHEM_EFFECTIVE_ROTOR_COUNT>
6

>  <PUBCHEM_PHARMACOPHORE_FEATURES>
7
1 1 acceptor
1 13 hydrophobe
1 14 hydrophobe
1 2 donor
1 4 donor
3 3 4 18 cation
6 3 11 15 16 17 18 rings

>  <PUBCHEM_HEAVY_ATOM_COUNT>
18

>  <PUBCHEM_ATOM_DEF_STEREO_COUNT>
0

>  <PUBCHEM_ATOM_UDEF_STEREO_COUNT>
0

>  <PUBCHEM_BOND_DEF_STEREO_COUNT>
0

>  <PUBCHEM_BOND_UDEF_STEREO_COUNT>
2

>  <PUBCHEM_ISOTOPIC_ATOM_COUNT>
0

>  <PUBCHEM_COMPONENT_COUNT>
1

>  <PUBCHEM_CACTVS_TAUTO_COUNT>
7

>  <PUBCHEM_CONFORMER_ID>
03356F8B00000001

>  <PUBCHEM_MMFF94_ENERGY>
38.7418

>  <PUBCHEM_FEATURE_SELFOVERLAP>
35.52

>  <PUBCHEM_SHAPE_FINGERPRINT>
100836 57 18411700998066701206
10354089 29 17458062673412472908
10447042 23 10087642590061036208
10613725 11 14117523138203540304
106641 1 17240771717278447769
10670039 82 16343710889171025561
10753850 27 9511462212547417012
12363563 72 8790604857542722818
12555020 224 10519979349416015629
12596602 18 17095520686489014624
12633257 1 15430042084435020188
12760667 363 8935002581399197831
12892183 10 15647600178190690934
13177829 20 16443071629149128576
13288520 33 9295289439282095347
14123256 34 8502375563960140120
1420 369 12685093652933434305
14251751 18 8358243839685389489
14251752 14 13614248053087796314
14251764 75 17825401936099388388
14341114 176 17894632517783923786
14341114 328 17748823012185741944
14848160 23 7997972354007038604
15183329 4 15554452881700850444
15188451 53 12829207784521324537
15352361 1 9439407934472148196
15778101 99 18341615931640996022
17834072 8 13183020704980927297
17870717 6 12175622884562670405
193927 3 11097858436720812611
19784866 240 9007056880875586078
200 152 8142088654184219966
20281389 69 18335417993997495184
20374829 77 10159702391126676142
20403669 9 8574711320979863801
20526848 3 18343025484094197488
20621476 66 18337111267879847860
212847 35 18343578530538524738
21637258 2 11602824631102813009
21756936 100 18339635741754837502
22224240 67 17967816063395195059
23198884 109 16128660751521239404
23253445 4 16732704943382722703
23403322 49 10015866487377782846
23559900 14 17901663765985118519
2838139 119 17988917873497090732
2916195 48 18342173418960155512
293599 30 18342176678697908342
3004659 81 12391513075240231702
3009799 131 16487255491922898986
312425 54 14996558434993594889
32948 21 12895072899028115075
351380 3 8574713490313011336
44062 13 10519690203464418013
449060 50 18335703789342034111
5104073 3 17823421496413068481
59682541 35 18186809114620102601
59682541 52 16773249400988367036
59755656 520 18187361056483277066
76465 3 8790882986497206350
7808743 9 18337106864878772002
960060 61 12967125034468292106
9996256 80 18411978096340563614

>  <PUBCHEM_SHAPE_MULTIPOLES>
349.62
16.14
1.72
1.14
10.35
0.32
-0.07
-10
-3.12
-0.23
0.07
0.11
-0.08
-0.06

>  <PUBCHEM_SHAPE_SELFOVERLAP>
706.209

>  <PUBCHEM_SHAPE_VOLUME>
203.4

>  <PUBCHEM_COORDINATE_TYPE>
2
5
10

$$$$
