54082590
 OpenBabel01182520543D

 17 17  0  0  0  0  0  0  0  0999 V2000
   -3.1561    1.0899    0.3980 O   0  0  0  0  0  0  0  0  0  0  0  0
    1.0174    1.1980   -0.1970 N   0  0  0  0  0  0  0  0  0  0  0  0
    3.0277   -0.0235   -0.0106 N   0  3  0  0  0  0  0  0  0  0  0  0
   -1.0861    0.0254    0.0162 C   0  0  0  0  0  0  0  0  0  0  0  0
   -0.4071   -1.1725    0.2098 C   0  0  0  0  0  0  0  0  0  0  0  0
   -2.5377    0.0732    0.0218 C   0  0  0  0  0  0  0  0  0  0  0  0
   -0.3342    1.1723   -0.1812 C   0  0  0  0  0  0  0  0  0  0  0  0
    0.9834   -1.1864    0.2004 C   0  0  0  0  0  0  0  0  0  0  0  0
    1.6427    0.0148   -0.0054 C   0  0  0  0  0  0  0  0  0  0  0  0
   -3.3501   -1.1344   -0.4367 C   0  0  0  0  0  0  0  0  0  0  0  0
    4.2001   -0.0566   -0.0154 C   0  5  0  0  0  0  0  0  0  0  0  0
   -0.9373   -2.1049    0.3813 H   0  0  0  0  0  0  0  0  0  0  0  0
   -0.8017    2.1392   -0.3415 H   0  0  0  0  0  0  0  0  0  0  0  0
    1.5226   -2.1154    0.3531 H   0  0  0  0  0  0  0  0  0  0  0  0
   -3.5531   -1.7835    0.4186 H   0  0  0  0  0  0  0  0  0  0  0  0
   -2.8172   -1.6875   -1.2148 H   0  0  0  0  0  0  0  0  0  0  0  0
   -4.2942   -0.7872   -0.8670 H   0  0  0  0  0  0  0  0  0  0  0  0
  1  6  2  0  0  0  0
  2  7  1  0  0  0  0
  2  9  2  0  0  0  0
  3  9  1  0  0  0  0
  3 11  3  0  0  0  0
  4  5  1  0  0  0  0
  4  6  1  0  0  0  0
  4  7  2  0  0  0  0
  5  8  2  0  0  0  0
  5 12  1  0  0  0  0
  6 10  1  0  0  0  0
  7 13  1  0  0  0  0
  8  9  1  0  0  0  0
  8 14  1  0  0  0  0
 10 15  1  0  0  0  0
 10 16  1  0  0  0  0
 10 17  1  0  0  0  0
M  CHG  2   3   1  11  -1
M  END
>  <PUBCHEM_COMPOUND_CID>
54082590

>  <PUBCHEM_CONFORMER_RMSD>
0.4

>  <PUBCHEM_CONFORMER_DIVERSEORDER>
2
3
5
6
1
4

>  <PUBCHEM_MMFF94_PARTIAL_CHARGES>
14
1 -0.57
10 0.06
11 -0.37
12 0.15
13 0.15
14 0.15
2 -0.62
3 0.23
4 0.09
5 -0.15
6 0.42
7 0.16
8 -0.15
9 0.45

>  <PUBCHEM_EFFECTIVE_ROTOR_COUNT>
1

>  <PUBCHEM_PHARMACOPHORE_FEATURES>
3
1 1 acceptor
3 2 3 9 cation
6 2 4 5 7 8 9 rings

>  <PUBCHEM_HEAVY_ATOM_COUNT>
11

>  <PUBCHEM_ATOM_DEF_STEREO_COUNT>
0

>  <PUBCHEM_ATOM_UDEF_STEREO_COUNT>
0

>  <PUBCHEM_BOND_DEF_STEREO_COUNT>
0

>  <PUBCHEM_BOND_UDEF_STEREO_COUNT>
0

>  <PUBCHEM_ISOTOPIC_ATOM_COUNT>
0

>  <PUBCHEM_COMPONENT_COUNT>
1

>  <PUBCHEM_CACTVS_TAUTO_COUNT>
2

>  <PUBCHEM_CONFORMER_ID>
03393C1E00000002

>  <PUBCHEM_MMFF94_ENERGY>
24.7786

>  <PUBCHEM_FEATURE_SELFOVERLAP>
15.223

>  <PUBCHEM_SHAPE_FINGERPRINT>
10219947 1 17675926495218390030
11062470 55 17632859720012026712
11401426 45 18409158918055382292
12032990 46 18410017658175055626
13690532 89 18334572460338027306
14325111 11 18411138039075010832
14993402 34 18334853943756882254
16945 1 18040999544059158162
19026448 4 16845854589933412554
193761 8 17615686233080798280
21293036 1 18261391174001016398
23235685 24 18408037403441959184
23380061 330 18412823607511779919
23402539 116 18341323427609944374
23402655 69 18265878178576674517
23463225 33 18261390006007412058
2748010 2 17974855273979563138
528886 8 18410288090853898627

>  <PUBCHEM_SHAPE_MULTIPOLES>
210.54
6
1.31
0.64
2.39
0
-0.01
-0.33
-0.22
-0.52
0
-0.1
-0.02
-0.28

>  <PUBCHEM_SHAPE_SELFOVERLAP>
435.837

>  <PUBCHEM_SHAPE_VOLUME>
120.2

>  <PUBCHEM_COORDINATE_TYPE>
2
5
10

$$$$
