54139139
 OpenBabel01182520543D

 23 23  0  0  0  0  0  0  0  0999 V2000
   -5.0945   -0.7949   -0.3233 O   0  0  0  0  0  0  0  0  0  0  0  0
   -0.6966    0.9644    0.2311 N   0  0  0  0  0  0  0  0  0  0  0  0
    1.0911   -0.3155    1.0056 N   0  0  0  0  0  0  0  0  0  0  0  0
   -4.6988    1.4035   -0.8418 N   0  0  0  0  0  0  0  0  0  0  0  0
    4.5042   -1.9174   -1.2374 N   0  0  0  0  0  0  0  0  0  0  0  0
    4.4384    2.3082   -0.0701 N   0  0  0  0  0  0  0  0  0  0  0  0
   -2.8923   -0.0140   -0.0274 C   0  0  0  0  0  0  0  0  0  0  0  0
   -2.4075   -1.2381    0.4197 C   0  0  0  0  0  0  0  0  0  0  0  0
   -0.2616   -0.2412    0.6613 C   0  0  0  0  0  0  0  0  0  0  0  0
   -1.0683   -1.3622    0.7727 C   0  0  0  0  0  0  0  0  0  0  0  0
   -2.0041    1.0467   -0.1029 C   0  0  0  0  0  0  0  0  0  0  0  0
   -4.2857    0.1478   -0.4032 C   0  0  0  0  0  0  0  0  0  0  0  0
    3.4225   -0.0879    0.3132 C   0  0  0  0  0  0  0  0  0  0  0  0
    1.9359   -0.0412    0.0602 C   0  0  0  0  0  0  0  0  0  0  0  0
    4.0270   -1.1091   -0.5548 C   0  0  0  0  0  0  0  0  0  0  0  0
    3.9902    1.2509    0.0970 C   0  0  0  0  0  0  0  0  0  0  0  0
   -3.0545   -2.1073    0.5007 H   0  0  0  0  0  0  0  0  0  0  0  0
   -0.6767   -2.3112    1.1232 H   0  0  0  0  0  0  0  0  0  0  0  0
   -2.2735    2.0410   -0.4360 H   0  0  0  0  0  0  0  0  0  0  0  0
    3.5827   -0.3743    1.3600 H   0  0  0  0  0  0  0  0  0  0  0  0
    1.6065    0.2294   -0.9622 H   0  0  0  0  0  0  0  0  0  0  0  0
   -4.1074    2.2200   -0.9305 H   0  0  0  0  0  0  0  0  0  0  0  0
   -5.6691    1.5460   -1.1044 H   0  0  0  0  0  0  0  0  0  0  0  0
  1 12  2  0  0  0  0
  2  9  2  0  0  0  0
  2 11  1  0  0  0  0
  3  9  1  0  0  0  0
  3 14  2  0  0  0  0
  4 12  1  0  0  0  0
  4 22  1  0  0  0  0
  4 23  1  0  0  0  0
  5 15  3  0  0  0  0
  6 16  3  0  0  0  0
  7  8  1  0  0  0  0
  7 11  2  0  0  0  0
  7 12  1  0  0  0  0
  8 10  2  0  0  0  0
  8 17  1  0  0  0  0
  9 10  1  0  0  0  0
 10 18  1  0  0  0  0
 11 19  1  0  0  0  0
 13 14  1  0  0  0  0
 13 15  1  0  0  0  0
 13 16  1  0  0  0  0
 13 20  1  0  0  0  0
 14 21  1  0  0  0  0
M  END
>  <PUBCHEM_COMPOUND_CID>
54139139

>  <PUBCHEM_CONFORMER_RMSD>
0.6

>  <PUBCHEM_CONFORMER_DIVERSEORDER>
1
17
11
20
12
6
5
18
2
14
10
9
19
8
7
13
4
16
15
3

>  <PUBCHEM_MMFF94_PARTIAL_CHARGES>
22
1 -0.57
10 -0.15
11 0.16
12 0.54
13 0.46
14 0.33
15 0.36
16 0.36
17 0.15
18 0.15
19 0.15
2 -0.62
21 0.06
22 0.37
23 0.37
3 -0.63
4 -0.8
5 -0.56
6 -0.56
7 0.09
8 -0.15
9 0.49

>  <PUBCHEM_EFFECTIVE_ROTOR_COUNT>
3

>  <PUBCHEM_PHARMACOPHORE_FEATURES>
7
1 1 acceptor
1 3 acceptor
1 4 donor
1 5 acceptor
1 6 acceptor
3 2 3 9 cation
6 2 7 8 9 10 11 rings

>  <PUBCHEM_HEAVY_ATOM_COUNT>
16

>  <PUBCHEM_ATOM_DEF_STEREO_COUNT>
0

>  <PUBCHEM_ATOM_UDEF_STEREO_COUNT>
0

>  <PUBCHEM_BOND_DEF_STEREO_COUNT>
0

>  <PUBCHEM_BOND_UDEF_STEREO_COUNT>
0

>  <PUBCHEM_ISOTOPIC_ATOM_COUNT>
0

>  <PUBCHEM_COMPONENT_COUNT>
1

>  <PUBCHEM_CACTVS_TAUTO_COUNT>
9

>  <PUBCHEM_CONFORMER_ID>
033A190300000001

>  <PUBCHEM_MMFF94_ENERGY>
35.9306

>  <PUBCHEM_FEATURE_SELFOVERLAP>
35.522

>  <PUBCHEM_SHAPE_FINGERPRINT>
10014705 185 18186797019617740953
12251169 10 9294994774186635722
12616999 72 16415489263649404404
12916748 109 18113901580597432073
13081056 2 18333731307998797725
13760787 5 17846508027512505218
15375358 24 18335420205267186842
17834072 33 18201153359931492981
17959699 21 18333446560236350160
1813 80 14476958995260696224
18186145 218 18113618976023197488
18222031 100 14117798028795062944
19784866 240 16845018896983354926
200 152 17346598538899546090
204376 136 14201402668399559025
20645477 56 18187646950416287208
20645477 70 18202006508373090238
23402539 116 18409720747196360861
23402655 69 18412543223689000812
23557571 272 18116160054727193330
23559900 14 18411699890060149474
312423 11 17560536022901592616
32948 21 18187368666974953878
3545911 37 18336831987098545432
4028521 119 18187361017326904709
42 15 10231763300705244408
4990 188 18411979143858500371
5104073 3 18260266360488941369
5281201 14 18412830157711582684
633830 44 18336539447911456119
90127 26 18187090541814258401
9709674 26 18336271253253517866

>  <PUBCHEM_SHAPE_MULTIPOLES>
298.5
11.08
1.75
0.88
0.23
0.32
-0.05
1.21
-3.46
1.58
-0.24
0.24
-0.23
1.16

>  <PUBCHEM_SHAPE_SELFOVERLAP>
621.85

>  <PUBCHEM_SHAPE_VOLUME>
164

>  <PUBCHEM_COORDINATE_TYPE>
2
5
10

$$$$
