54245880
 OpenBabel01182520543D

 40 40  0  0  1  0  0  0  0  0999 V2000
   -0.2581    0.5736   -1.6686 O   0  0  0  0  0  0  0  0  0  0  0  0
    3.7298   -0.1693    0.3625 N   0  0  0  0  0  0  0  0  0  0  0  0
    0.0886   -0.9443    0.0496 N   0  0  0  0  0  0  0  0  0  0  0  0
   -4.1440    1.3230   -0.3014 N   0  0  0  0  0  0  0  0  0  0  0  0
   -6.1089    0.4021    0.6824 N   0  0  0  0  0  0  0  0  0  0  0  0
    2.2939   -0.0819    0.6040 C   0  0  0  0  0  0  0  0  0  0  0  0
    1.5037   -1.1369   -0.1806 C   0  0  1  0  0  0  0  0  0  0  0  0
    4.0683    0.4014   -0.9422 C   0  0  0  0  0  0  0  0  0  0  0  0
    4.4728    0.5126    1.4235 C   0  0  0  0  0  0  0  0  0  0  0  0
    1.8944   -2.5695    0.1749 C   0  0  0  0  0  0  0  0  0  0  0  0
    5.5521    0.2583   -1.2357 C   0  0  0  0  0  0  0  0  0  0  0  0
    4.1463    1.9961    1.4561 C   0  0  0  0  0  0  0  0  0  0  0  0
   -0.6796   -0.0926   -0.7269 C   0  0  0  0  0  0  0  0  0  0  0  0
   -2.1114    0.0148   -0.3454 C   0  0  0  0  0  0  0  0  0  0  0  0
   -2.7620   -1.0312    0.2996 C   0  0  0  0  0  0  0  0  0  0  0  0
   -2.8404    1.1604   -0.6209 C   0  0  0  0  0  0  0  0  0  0  0  0
   -4.1028   -0.9015    0.6444 C   0  0  0  0  0  0  0  0  0  0  0  0
   -4.7428    0.2851    0.3246 C   0  0  0  0  0  0  0  0  0  0  0  0
    2.0781   -0.2419    1.6701 H   0  0  0  0  0  0  0  0  0  0  0  0
    1.8993    0.9135    0.3602 H   0  0  0  0  0  0  0  0  0  0  0  0
    1.6656   -1.0048   -1.2560 H   0  0  0  0  0  0  0  0  0  0  0  0
    3.5570   -0.1674   -1.7270 H   0  0  0  0  0  0  0  0  0  0  0  0
    3.7458    1.4400   -1.0756 H   0  0  0  0  0  0  0  0  0  0  0  0
    4.2131    0.0665    2.3925 H   0  0  0  0  0  0  0  0  0  0  0  0
    5.5531    0.3559    1.3354 H   0  0  0  0  0  0  0  0  0  0  0  0
    2.9413   -2.7725   -0.0716 H   0  0  0  0  0  0  0  0  0  0  0  0
    1.2769   -3.2868   -0.3773 H   0  0  0  0  0  0  0  0  0  0  0  0
    1.7493   -2.7664    1.2429 H   0  0  0  0  0  0  0  0  0  0  0  0
   -0.3074   -1.3799    0.8762 H   0  0  0  0  0  0  0  0  0  0  0  0
    6.1640    0.9625   -0.6640 H   0  0  0  0  0  0  0  0  0  0  0  0
    5.9075   -0.7595   -1.0410 H   0  0  0  0  0  0  0  0  0  0  0  0
    5.7380    0.4697   -2.2948 H   0  0  0  0  0  0  0  0  0  0  0  0
    4.4936    2.5385    0.5727 H   0  0  0  0  0  0  0  0  0  0  0  0
    3.0857    2.2097    1.6138 H   0  0  0  0  0  0  0  0  0  0  0  0
    4.6716    2.4469    2.3072 H   0  0  0  0  0  0  0  0  0  0  0  0
   -2.2666   -1.9707    0.5254 H   0  0  0  0  0  0  0  0  0  0  0  0
   -2.3927    2.0153   -1.1184 H   0  0  0  0  0  0  0  0  0  0  0  0
   -4.6188   -1.7155    1.1432 H   0  0  0  0  0  0  0  0  0  0  0  0
   -6.5742    1.2684    0.4412 H   0  0  0  0  0  0  0  0  0  0  0  0
   -6.6660   -0.4416    0.7395 H   0  0  0  0  0  0  0  0  0  0  0  0
  1 13  2  0  0  0  0
  2  6  1  0  0  0  0
  2  8  1  0  0  0  0
  2  9  1  0  0  0  0
  3  7  1  0  0  0  0
  3 13  1  0  0  0  0
  3 29  1  0  0  0  0
  4 16  1  0  0  0  0
  4 18  2  0  0  0  0
  5 18  1  0  0  0  0
  5 39  1  0  0  0  0
  5 40  1  0  0  0  0
  6  7  1  0  0  0  0
  6 19  1  0  0  0  0
  6 20  1  0  0  0  0
  7 10  1  0  0  0  0
  7 21  1  6  0  0  0
  8 11  1  0  0  0  0
  8 22  1  0  0  0  0
  8 23  1  0  0  0  0
  9 12  1  0  0  0  0
  9 24  1  0  0  0  0
  9 25  1  0  0  0  0
 10 26  1  0  0  0  0
 10 27  1  0  0  0  0
 10 28  1  0  0  0  0
 11 30  1  0  0  0  0
 11 31  1  0  0  0  0
 11 32  1  0  0  0  0
 12 33  1  0  0  0  0
 12 34  1  0  0  0  0
 12 35  1  0  0  0  0
 13 14  1  0  0  0  0
 14 15  1  0  0  0  0
 14 16  2  0  0  0  0
 15 17  2  0  0  0  0
 15 36  1  0  0  0  0
 16 37  1  0  0  0  0
 17 18  1  0  0  0  0
 17 38  1  0  0  0  0
M  END
>  <PUBCHEM_COMPOUND_CID>
54245880

>  <PUBCHEM_CONFORMER_RMSD>
0.8

>  <PUBCHEM_CONFORMER_DIVERSEORDER>
2
102
101
41
16
93
57
83
64
25
76
103
99
20
85
29
55
17
23
36
1
69
79
14
27
71
78
80
95
77
40
86
97
84
47
28
82
66
98
51
34
61
65
33
44
12
52
60
70
22
18
90
48
73
81
30
100
42
53
58
8
11
67
75
13
63
91
5
9
4
89
92
39
94
49
15
56
3
10
68
7
46
21
31
45
38
19
50
6
54
32
43
96
59
87
37
35
74
24
26
62
88
72

>  <PUBCHEM_MMFF94_PARTIAL_CHARGES>
21
1 -0.57
13 0.54
14 0.09
15 -0.15
16 0.16
17 -0.15
18 0.41
2 -0.81
29 0.37
3 -0.73
36 0.15
37 0.15
38 0.15
39 0.4
4 -0.62
40 0.4
5 -0.9
6 0.27
7 0.3
8 0.27
9 0.27

>  <PUBCHEM_EFFECTIVE_ROTOR_COUNT>
7

>  <PUBCHEM_PHARMACOPHORE_FEATURES>
6
1 1 acceptor
1 2 cation
1 3 donor
1 5 donor
3 4 5 18 cation
6 4 14 15 16 17 18 rings

>  <PUBCHEM_HEAVY_ATOM_COUNT>
18

>  <PUBCHEM_ATOM_DEF_STEREO_COUNT>
0

>  <PUBCHEM_ATOM_UDEF_STEREO_COUNT>
1

>  <PUBCHEM_BOND_DEF_STEREO_COUNT>
0

>  <PUBCHEM_BOND_UDEF_STEREO_COUNT>
0

>  <PUBCHEM_ISOTOPIC_ATOM_COUNT>
0

>  <PUBCHEM_COMPONENT_COUNT>
1

>  <PUBCHEM_CACTVS_TAUTO_COUNT>
7

>  <PUBCHEM_CONFORMER_ID>
033BB9F800000002

>  <PUBCHEM_MMFF94_ENERGY>
43.9315

>  <PUBCHEM_FEATURE_SELFOVERLAP>
30.446

>  <PUBCHEM_SHAPE_FINGERPRINT>
10366900 7 18410288134056785771
12507560 40 18336827473077218599
12670545 2 11815900059255427828
12730499 353 18272378572455089246
13081056 2 18201999932429824832
13533116 47 18340488842397711635
13955234 65 18272087137412614378
14341114 328 17095522911476784808
14848160 23 12107781921759366880
15183329 4 13901916608968136560
15239154 128 18272930522548404952
17834072 14 7853577911384206750
17834072 33 17846494837947708991
17834072 8 16702310053014504532
17870717 6 10231761136374127777
1813 80 15719683069348843519
18186145 218 17917708033136310946
19784866 170 18187368718140079967
19784866 240 12396576287035426795
20374829 77 10879990250837719691
20645477 56 18409730647412625471
21503847 285 17846500344280281880
22079108 93 18271520996044654251
22854114 59 18411695504276054586
23557571 272 17749390308551010935
23559900 14 18043250141277206782
32948 21 12967130497244842283
3545911 37 18410296891294706967
449060 50 18411978048942383767
5104073 3 18190181192238872761
5374978 207 16515399677477976708
633830 44 18060129981726391646
6442390 28 18409729607988848506
90127 26 18131353033184787496
960060 61 12463572915467096896
9882013 296 17676486142194293598

>  <PUBCHEM_SHAPE_MULTIPOLES>
344.64
12.98
1.67
1.26
3.09
0.49
-0.08
-4.32
1.76
-0.91
0.4
-1.32
-0.38
0.96

>  <PUBCHEM_SHAPE_SELFOVERLAP>
690.359

>  <PUBCHEM_SHAPE_VOLUME>
203.8

>  <PUBCHEM_COORDINATE_TYPE>
2
5
10

$$$$
