54413526
 OpenBabel01182520543D

 37 37  0  0  0  0  0  0  0  0999 V2000
   -3.4640   -1.5282    1.7335 O   0  0  0  0  0  0  0  0  0  0  0  0
    3.5141   -0.0097   -0.0637 N   0  0  0  0  0  0  0  0  0  0  0  0
   -1.9987    2.0322   -0.5831 N   0  0  0  0  0  0  0  0  0  0  0  0
   -4.1636    1.3797    0.1300 N   0  0  0  0  0  0  0  0  0  0  0  0
   -4.0161   -2.0325   -0.4343 N   0  0  0  0  0  0  0  0  0  0  0  0
    2.1148    0.2773    0.2501 C   0  0  0  0  0  0  0  0  0  0  0  0
    1.2275    0.0879   -0.9805 C   0  0  0  0  0  0  0  0  0  0  0  0
    4.3599    0.2320    1.1045 C   0  0  0  0  0  0  0  0  0  0  0  0
    3.6616   -1.3896   -0.5249 C   0  0  0  0  0  0  0  0  0  0  0  0
   -0.2156    0.4022   -0.6762 C   0  0  0  0  0  0  0  0  0  0  0  0
    4.2191    1.6620    1.5979 C   0  0  0  0  0  0  0  0  0  0  0  0
    5.0998   -1.6876   -0.9139 C   0  0  0  0  0  0  0  0  0  0  0  0
   -1.0846   -0.5850   -0.2245 C   0  0  0  0  0  0  0  0  0  0  0  0
   -0.7175    1.6835   -0.8376 C   0  0  0  0  0  0  0  0  0  0  0  0
   -2.4101   -0.2650    0.0480 C   0  0  0  0  0  0  0  0  0  0  0  0
   -2.8138    1.0463   -0.1458 C   0  0  0  0  0  0  0  0  0  0  0  0
   -3.3127   -1.3058    0.5204 C   0  0  0  0  0  0  0  0  0  0  0  0
    1.7571   -0.3513    1.0771 H   0  0  0  0  0  0  0  0  0  0  0  0
    1.9856    1.3198    0.5604 H   0  0  0  0  0  0  0  0  0  0  0  0
    1.5732    0.7232   -1.8066 H   0  0  0  0  0  0  0  0  0  0  0  0
    1.2368   -0.9391   -1.3585 H   0  0  0  0  0  0  0  0  0  0  0  0
    4.1376   -0.4633    1.9238 H   0  0  0  0  0  0  0  0  0  0  0  0
    5.4170    0.1114    0.8460 H   0  0  0  0  0  0  0  0  0  0  0  0
    3.3197   -2.1144    0.2244 H   0  0  0  0  0  0  0  0  0  0  0  0
    3.0931   -1.5661   -1.4413 H   0  0  0  0  0  0  0  0  0  0  0  0
    4.2865    2.3857    0.7782 H   0  0  0  0  0  0  0  0  0  0  0  0
    3.2870    1.8270    2.1471 H   0  0  0  0  0  0  0  0  0  0  0  0
    5.0325    1.8883    2.2970 H   0  0  0  0  0  0  0  0  0  0  0  0
    5.5135   -0.9117   -1.5674 H   0  0  0  0  0  0  0  0  0  0  0  0
    5.7528   -1.8057   -0.0438 H   0  0  0  0  0  0  0  0  0  0  0  0
    5.1427   -2.6341   -1.4650 H   0  0  0  0  0  0  0  0  0  0  0  0
   -0.7278   -1.6025   -0.0827 H   0  0  0  0  0  0  0  0  0  0  0  0
   -0.0878    2.4966   -1.1855 H   0  0  0  0  0  0  0  0  0  0  0  0
   -4.8751    0.6724   -0.0061 H   0  0  0  0  0  0  0  0  0  0  0  0
   -4.4289    2.3462   -0.0166 H   0  0  0  0  0  0  0  0  0  0  0  0
   -4.6630   -2.7646   -0.1607 H   0  0  0  0  0  0  0  0  0  0  0  0
   -3.9109   -1.8594   -1.4289 H   0  0  0  0  0  0  0  0  0  0  0  0
  1 17  2  0  0  0  0
  2  6  1  0  0  0  0
  2  8  1  0  0  0  0
  2  9  1  0  0  0  0
  3 14  2  0  0  0  0
  3 16  1  0  0  0  0
  4 16  1  0  0  0  0
  4 34  1  0  0  0  0
  4 35  1  0  0  0  0
  5 17  1  0  0  0  0
  5 36  1  0  0  0  0
  5 37  1  0  0  0  0
  6  7  1  0  0  0  0
  6 18  1  0  0  0  0
  6 19  1  0  0  0  0
  7 10  1  0  0  0  0
  7 20  1  0  0  0  0
  7 21  1  0  0  0  0
  8 11  1  0  0  0  0
  8 22  1  0  0  0  0
  8 23  1  0  0  0  0
  9 12  1  0  0  0  0
  9 24  1  0  0  0  0
  9 25  1  0  0  0  0
 10 13  2  0  0  0  0
 10 14  1  0  0  0  0
 11 26  1  0  0  0  0
 11 27  1  0  0  0  0
 11 28  1  0  0  0  0
 12 29  1  0  0  0  0
 12 30  1  0  0  0  0
 12 31  1  0  0  0  0
 13 15  1  0  0  0  0
 13 32  1  0  0  0  0
 14 33  1  0  0  0  0
 15 16  2  0  0  0  0
 15 17  1  0  0  0  0
M  END
>  <PUBCHEM_COMPOUND_CID>
54413526

>  <PUBCHEM_CONFORMER_RMSD>
0.8

>  <PUBCHEM_CONFORMER_DIVERSEORDER>
5
45
32
14
6
47
35
30
23
2
8
28
43
22
29
7
1
46
34
31
41
13
44
19
9
10
20
42
40
33
17
38
3
37
25
24
26
39
27
4
21
16
15
36
12
11
18

>  <PUBCHEM_MMFF94_PARTIAL_CHARGES>
21
1 -0.57
10 -0.14
13 -0.15
14 0.16
15 0.09
16 0.41
17 0.54
2 -0.81
3 -0.62
32 0.15
33 0.15
34 0.4
35 0.4
36 0.37
37 0.37
4 -0.9
5 -0.8
6 0.27
7 0.14
8 0.27
9 0.27

>  <PUBCHEM_EFFECTIVE_ROTOR_COUNT>
6

>  <PUBCHEM_PHARMACOPHORE_FEATURES>
7
1 1 acceptor
1 2 cation
1 3 acceptor
1 4 cation
1 4 donor
1 5 donor
6 3 10 13 14 15 16 rings

>  <PUBCHEM_HEAVY_ATOM_COUNT>
17

>  <PUBCHEM_ATOM_DEF_STEREO_COUNT>
0

>  <PUBCHEM_ATOM_UDEF_STEREO_COUNT>
0

>  <PUBCHEM_BOND_DEF_STEREO_COUNT>
0

>  <PUBCHEM_BOND_UDEF_STEREO_COUNT>
0

>  <PUBCHEM_ISOTOPIC_ATOM_COUNT>
0

>  <PUBCHEM_COMPONENT_COUNT>
1

>  <PUBCHEM_CACTVS_TAUTO_COUNT>
7

>  <PUBCHEM_CONFORMER_ID>
033E48D600000005

>  <PUBCHEM_MMFF94_ENERGY>
50.0045

>  <PUBCHEM_FEATURE_SELFOVERLAP>
35.521

>  <PUBCHEM_SHAPE_FINGERPRINT>
11046707 91 17821730541512465678
11132069 177 18261108556447122813
11370993 144 18059303066871542873
11405975 8 18342738464614914002
11543360 7 13262684789047638586
11552529 35 17059206132384734582
12346177 29 18113610166992552213
12507560 40 18272649056515063156
12553582 1 17095244704806688420
13296908 3 18412824677296110340
13675066 3 18413670210232872076
13760787 5 15140680263473407850
14252887 29 18411136978687619818
14289901 80 18130780200690907568
15219456 202 18273491265326485940
15653759 3 18411136918210028264
15880784 105 17989207078945617731
17804303 29 18409174285416725564
1813 80 17385444340516937332
19026448 4 18343017783533911480
19107657 162 18334857212501294446
193927 3 17822867479722882947
20281475 54 17530963553860829882
20671657 53 16515681207967398871
20681677 76 18343291570403358188
21065198 57 18271242729571965996
21065199 12 18343297076714858096
21065201 7 18187641354569649184
21501925 9 18261390112975347740
21864079 5 14476959029926526210
22943178 12 18341041931232373564
22959321 60 18273207625559859024
23366157 5 17242462847782865861
23557571 272 18335991860982225965
23559900 14 18408605829869183804
2838139 119 16055752011431236905
3009799 131 18117818080055554055
49207404 50 18342735256464312688
5104073 3 18413667994061474506
53917941 68 18044070416534687677
6049 1 18341609283675187164
90127 26 18059857242634312344
9709674 26 18335985354344298274

>  <PUBCHEM_SHAPE_MULTIPOLES>
324.06
10.41
2.07
1.22
6.23
0.04
-0.39
2.88
-2.22
-0.52
0
0.47
-0.05
2.12

>  <PUBCHEM_SHAPE_SELFOVERLAP>
654.558

>  <PUBCHEM_SHAPE_VOLUME>
190.4

>  <PUBCHEM_COORDINATE_TYPE>
2
5
10

$$$$
