54463046
 OpenBabel01182520543D

 35 35  0  0  0  0  0  0  0  0999 V2000
    3.8670   -1.7423    0.3638 O   0  0  0  0  0  0  0  0  0  0  0  0
    3.8293    0.5887    0.1923 N   0  0  0  0  0  0  0  0  0  0  0  0
   -0.4300   -0.8715    0.8752 N   0  0  0  0  0  0  0  0  0  0  0  0
   -2.2775   -1.1144   -0.5255 N   0  0  0  0  0  0  0  0  0  0  0  0
   -5.4915    0.0176    2.2378 N   0  0  0  0  0  0  0  0  0  0  0  0
   -5.2375    1.8971   -1.7151 N   0  0  0  0  0  0  0  0  0  0  0  0
    3.0353    1.7976   -0.0161 C   0  0  0  0  0  0  0  0  0  0  0  0
    5.2556    0.7987    0.3973 C   0  0  0  0  0  0  0  0  0  0  0  0
    3.2564   -0.6874    0.1946 C   0  0  0  0  0  0  0  0  0  0  0  0
    1.8078   -0.8035   -0.0370 C   0  0  0  0  0  0  0  0  0  0  0  0
    2.5197    2.3553    1.2944 C   0  0  0  0  0  0  0  0  0  0  0  0
    6.0131    0.7799   -0.9143 C   0  0  0  0  0  0  0  0  0  0  0  0
    1.2965   -0.9496   -1.3218 C   0  0  0  0  0  0  0  0  0  0  0  0
    0.9106   -0.7705    1.0182 C   0  0  0  0  0  0  0  0  0  0  0  0
   -0.0772   -1.0566   -1.5093 C   0  0  0  0  0  0  0  0  0  0  0  0
   -0.8902   -1.0123   -0.3881 C   0  0  0  0  0  0  0  0  0  0  0  0
   -2.9691   -0.1065   -0.0908 C   0  0  0  0  0  0  0  0  0  0  0  0
   -4.4749   -0.1029   -0.1856 C   0  0  0  0  0  0  0  0  0  0  0  0
   -5.0426   -0.0336    1.1688 C   0  0  0  0  0  0  0  0  0  0  0  0
   -4.9007    1.0161   -1.0388 C   0  0  0  0  0  0  0  0  0  0  0  0
    3.6555    2.5459   -0.5231 H   0  0  0  0  0  0  0  0  0  0  0  0
    2.1932    1.5997   -0.6840 H   0  0  0  0  0  0  0  0  0  0  0  0
    5.4175    1.7415    0.9304 H   0  0  0  0  0  0  0  0  0  0  0  0
    5.6359   -0.0077    1.0346 H   0  0  0  0  0  0  0  0  0  0  0  0
    1.9235    3.2551    1.1120 H   0  0  0  0  0  0  0  0  0  0  0  0
    3.3477    2.6318    1.9557 H   0  0  0  0  0  0  0  0  0  0  0  0
    1.8953    1.6440    1.8377 H   0  0  0  0  0  0  0  0  0  0  0  0
    7.0842    0.9181   -0.7379 H   0  0  0  0  0  0  0  0  0  0  0  0
    5.6721    1.5778   -1.5818 H   0  0  0  0  0  0  0  0  0  0  0  0
    5.8734   -0.1723   -1.4370 H   0  0  0  0  0  0  0  0  0  0  0  0
    1.9595   -0.9805   -2.1822 H   0  0  0  0  0  0  0  0  0  0  0  0
    1.2491   -0.6705    2.0449 H   0  0  0  0  0  0  0  0  0  0  0  0
   -0.4896   -1.1702   -2.5061 H   0  0  0  0  0  0  0  0  0  0  0  0
   -2.4896    0.7861    0.3570 H   0  0  0  0  0  0  0  0  0  0  0  0
   -4.7907   -1.0437   -0.6529 H   0  0  0  0  0  0  0  0  0  0  0  0
  1  9  2  0  0  0  0
  2  7  1  0  0  0  0
  2  8  1  0  0  0  0
  2  9  1  0  0  0  0
  3 14  1  0  0  0  0
  3 16  2  0  0  0  0
  4 16  1  0  0  0  0
  4 17  2  0  0  0  0
  5 19  3  0  0  0  0
  6 20  3  0  0  0  0
  7 11  1  0  0  0  0
  7 21  1  0  0  0  0
  7 22  1  0  0  0  0
  8 12  1  0  0  0  0
  8 23  1  0  0  0  0
  8 24  1  0  0  0  0
  9 10  1  0  0  0  0
 10 13  1  0  0  0  0
 10 14  2  0  0  0  0
 11 25  1  0  0  0  0
 11 26  1  0  0  0  0
 11 27  1  0  0  0  0
 12 28  1  0  0  0  0
 12 29  1  0  0  0  0
 12 30  1  0  0  0  0
 13 15  2  0  0  0  0
 13 31  1  0  0  0  0
 14 32  1  0  0  0  0
 15 16  1  0  0  0  0
 15 33  1  0  0  0  0
 17 18  1  0  0  0  0
 17 34  1  0  0  0  0
 18 19  1  0  0  0  0
 18 20  1  0  0  0  0
 18 35  1  0  0  0  0
M  END
>  <PUBCHEM_COMPOUND_CID>
54463046

>  <PUBCHEM_CONFORMER_RMSD>
0.8

>  <PUBCHEM_CONFORMER_DIVERSEORDER>
1
36
23
28
31
19
37
47
50
16
2
14
25
43
38
6
12
21
41
33
9
42
4
45
46
20
11
15
34
48
27
24
17
5
44
7
10
49
29
18
13
35
22
3
32
30
26
8
40
39

>  <PUBCHEM_MMFF94_PARTIAL_CHARGES>
22
1 -0.57
10 0.09
13 -0.15
14 0.16
15 -0.15
16 0.49
17 0.33
18 0.46
19 0.36
2 -0.66
20 0.36
3 -0.62
31 0.15
32 0.15
33 0.15
34 0.06
4 -0.63
5 -0.56
6 -0.56
7 0.3
8 0.3
9 0.54

>  <PUBCHEM_EFFECTIVE_ROTOR_COUNT>
6

>  <PUBCHEM_PHARMACOPHORE_FEATURES>
6
1 1 acceptor
1 4 acceptor
1 5 acceptor
1 6 acceptor
3 3 4 16 cation
6 3 10 13 14 15 16 rings

>  <PUBCHEM_HEAVY_ATOM_COUNT>
20

>  <PUBCHEM_ATOM_DEF_STEREO_COUNT>
0

>  <PUBCHEM_ATOM_UDEF_STEREO_COUNT>
0

>  <PUBCHEM_BOND_DEF_STEREO_COUNT>
0

>  <PUBCHEM_BOND_UDEF_STEREO_COUNT>
0

>  <PUBCHEM_ISOTOPIC_ATOM_COUNT>
0

>  <PUBCHEM_COMPONENT_COUNT>
1

>  <PUBCHEM_CACTVS_TAUTO_COUNT>
5

>  <PUBCHEM_CONFORMER_ID>
033F0A4600000001

>  <PUBCHEM_MMFF94_ENERGY>
42.1194

>  <PUBCHEM_FEATURE_SELFOVERLAP>
30.448

>  <PUBCHEM_SHAPE_FINGERPRINT>
10354089 29 18411985784283933626
106641 1 15792302612654737236
10803635 8 13039189195501010429
11089746 13 18189598502299435823
11545043 162 17748829583918162875
12507560 40 18040155093818450651
12596602 18 15864070991911029012
12670543 26 15626234498114575830
13583140 156 18337393841603496875
13675066 3 17822013086400490655
14251764 75 17842283845515313809
14252887 29 14346066495845738378
14863182 85 12252176334803043336
15183329 4 17918276441750488100
15188451 53 16153994655415077347
15238133 3 18261098708904823320
15375462 189 12540692613346116135
1601671 61 17847065480097633216
200 152 8502379940241632022
20281389 69 18409443704641899136
20645477 56 18408323306788798263
21033648 144 18129653226873851473
21033648 29 18186791496316438553
21315759 148 17095531681636479859
21637258 2 8430325589040883156
21709351 56 17988637553365027062
22289505 5 18412820266607615348
231179 274 18412822490725272439
23379529 103 13037179382961745989
23402655 69 15625948586784976979
23559900 14 17023745577035281555
2838139 119 18343294886102630828
2916195 48 18114178661500877881
4325135 7 17917992824186665599
4990 188 13326852236289563711
5104073 3 17095802106068610825
8272917 22 18343588417453506974
90127 26 18187082815563620991

>  <PUBCHEM_SHAPE_MULTIPOLES>
380.82
13.79
1.81
1.52
6.19
0.75
-0.02
5.94
0.48
-1.27
0.1
2.07
0.28
0.55

>  <PUBCHEM_SHAPE_SELFOVERLAP>
776.276

>  <PUBCHEM_SHAPE_VOLUME>
216.4

>  <PUBCHEM_COORDINATE_TYPE>
2
5
10

$$$$
