54857354
 OpenBabel01182520543D

 24 25  0  0  0  0  0  0  0  0999 V2000
   -3.8935   -1.0806   -0.0095 O   0  0  0  0  0  0  0  0  0  0  0  0
    2.3503    0.0087   -0.0353 N   0  0  0  0  0  0  0  0  0  0  0  0
    0.2987    1.1928    0.0152 N   0  0  0  0  0  0  0  0  0  0  0  0
   -3.8681    1.2117    0.0444 N   0  0  0  0  0  0  0  0  0  0  0  0
    4.3905    0.0023   -0.1150 C   0  0  0  0  0  0  0  0  0  0  0  0
    3.2976    1.0705   -0.0092 C   0  0  0  0  0  0  0  0  0  0  0  0
    3.3002   -1.0176    0.2282 C   0  0  0  0  0  0  0  0  0  0  0  0
    0.9487    0.0081   -0.0257 C   0  0  0  0  0  0  0  0  0  0  0  0
    0.3148   -1.2236   -0.0591 C   0  0  0  0  0  0  0  0  0  0  0  0
   -1.0756   -1.2404   -0.0501 C   0  0  0  0  0  0  0  0  0  0  0  0
   -1.7796   -0.0420   -0.0085 C   0  0  0  0  0  0  0  0  0  0  0  0
   -1.0521    1.1367    0.0228 C   0  0  0  0  0  0  0  0  0  0  0  0
   -3.2318   -0.0266    0.0020 C   0  0  0  0  0  0  0  0  0  0  0  0
    4.8106   -0.1111   -1.1204 H   0  0  0  0  0  0  0  0  0  0  0  0
    5.2028    0.0858    0.6117 H   0  0  0  0  0  0  0  0  0  0  0  0
    3.2742    1.6253    0.9332 H   0  0  0  0  0  0  0  0  0  0  0  0
    3.2174    1.7485   -0.8620 H   0  0  0  0  0  0  0  0  0  0  0  0
    3.2382   -1.8702   -0.4522 H   0  0  0  0  0  0  0  0  0  0  0  0
    3.2801   -1.3475    1.2710 H   0  0  0  0  0  0  0  0  0  0  0  0
    0.8568   -2.1624   -0.0937 H   0  0  0  0  0  0  0  0  0  0  0  0
   -1.5895   -2.1975   -0.0765 H   0  0  0  0  0  0  0  0  0  0  0  0
   -1.4967    2.1233    0.0565 H   0  0  0  0  0  0  0  0  0  0  0  0
   -3.4047    2.1113    0.0608 H   0  0  0  0  0  0  0  0  0  0  0  0
   -4.8824    1.2513    0.0594 H   0  0  0  0  0  0  0  0  0  0  0  0
  1 13  2  0  0  0  0
  2  6  1  0  0  0  0
  2  7  1  0  0  0  0
  2  8  1  0  0  0  0
  3  8  2  0  0  0  0
  3 12  1  0  0  0  0
  4 13  1  0  0  0  0
  4 23  1  0  0  0  0
  4 24  1  0  0  0  0
  5  6  1  0  0  0  0
  5  7  1  0  0  0  0
  5 14  1  0  0  0  0
  5 15  1  0  0  0  0
  6 16  1  0  0  0  0
  6 17  1  0  0  0  0
  7 18  1  0  0  0  0
  7 19  1  0  0  0  0
  8  9  1  0  0  0  0
  9 10  2  0  0  0  0
  9 20  1  0  0  0  0
 10 11  1  0  0  0  0
 10 21  1  0  0  0  0
 11 12  2  0  0  0  0
 11 13  1  0  0  0  0
 12 22  1  0  0  0  0
M  END
>  <PUBCHEM_COMPOUND_CID>
54857354

>  <PUBCHEM_CONFORMER_RMSD>
0.6

>  <PUBCHEM_CONFORMER_DIVERSEORDER>
1
2

>  <PUBCHEM_MMFF94_PARTIAL_CHARGES>
17
1 -0.57
10 -0.15
11 0.09
12 0.16
13 0.54
2 -0.59
20 0.15
21 0.15
22 0.15
23 0.37
24 0.37
3 -0.62
4 -0.8
6 0.25
7 0.25
8 0.41
9 -0.15

>  <PUBCHEM_EFFECTIVE_ROTOR_COUNT>
2.8

>  <PUBCHEM_PHARMACOPHORE_FEATURES>
5
1 1 acceptor
1 4 donor
3 2 3 8 cation
4 2 5 6 7 rings
6 3 8 9 10 11 12 rings

>  <PUBCHEM_HEAVY_ATOM_COUNT>
13

>  <PUBCHEM_ATOM_DEF_STEREO_COUNT>
0

>  <PUBCHEM_ATOM_UDEF_STEREO_COUNT>
0

>  <PUBCHEM_BOND_DEF_STEREO_COUNT>
0

>  <PUBCHEM_BOND_UDEF_STEREO_COUNT>
0

>  <PUBCHEM_ISOTOPIC_ATOM_COUNT>
0

>  <PUBCHEM_COMPONENT_COUNT>
1

>  <PUBCHEM_CACTVS_TAUTO_COUNT>
2

>  <PUBCHEM_CONFORMER_ID>
03450E8A00000001

>  <PUBCHEM_MMFF94_ENERGY>
46.2601

>  <PUBCHEM_FEATURE_SELFOVERLAP>
25.372

>  <PUBCHEM_SHAPE_FINGERPRINT>
10219947 1 18409732863056464086
11062470 55 18410575084678929164
11132069 177 18342171163553718472
11401426 45 18413101758342000477
11471102 20 18410851045176068766
12032990 46 18410860970618902695
12932764 1 16415186854574597286
13214271 11 18413387635865924591
13380535 76 18411702079913773766
13690532 89 18408884048685735726
14144814 61 18410573972546124266
14325111 11 18410573985151470624
14993402 34 18409165532294436239
15196674 1 18410855460154535562
18186145 218 18040431075236363374
193761 8 17618504281245657621
200 152 17846493720949951358
20510252 161 18273216361370462512
20528008 55 18342735243289325384
20645476 183 17896902021564008646
20645477 70 18270680857481717798
21267235 1 18410302431586578734
22485316 2 18410570686643032538
23402539 116 18273206491408651844
23402655 69 18342735195786313396
23463225 33 18408603634840214830
23559900 14 18343581833484276762
366044 4 18411418410145256939
42 15 18259982644061475786
4990 188 18131359591937484750
5104073 3 18410292510232770232
69090 78 18272365390899563214
7364860 26 18196652891636565654

>  <PUBCHEM_SHAPE_MULTIPOLES>
246.72
7.61
1.38
0.6
0.93
0
0
-0.33
-0.03
-0.27
-0.01
0.06
0.01
-0.09

>  <PUBCHEM_SHAPE_SELFOVERLAP>
524.326

>  <PUBCHEM_SHAPE_VOLUME>
138.2

>  <PUBCHEM_COORDINATE_TYPE>
2
5
10

$$$$
