54968725
 OpenBabel01182520543D

 37 37  0  0  1  0  0  0  0  0999 V2000
    1.6681   -2.3075    1.6458 O   0  0  0  0  0  0  0  0  0  0  0  0
    0.0285    0.4169    0.4822 N   0  0  0  0  0  0  0  0  0  0  0  0
   -4.1589   -0.1119   -0.3909 N   0  0  0  0  0  0  0  0  0  0  0  0
    1.7732    1.6638   -0.4572 N   0  0  0  0  0  0  0  0  0  0  0  0
    0.8918   -2.7886   -0.4576 N   0  0  0  0  0  0  0  0  0  0  0  0
   -0.8511    1.5654    0.5502 C   0  0  1  0  0  0  0  0  0  0  0  0
   -2.3128    1.1097    0.6653 C   0  0  0  0  0  0  0  0  0  0  0  0
   -2.7687    0.2999   -0.5514 C   0  0  0  0  0  0  0  0  0  0  0  0
   -0.4490    2.4160    1.7507 C   0  0  0  0  0  0  0  0  0  0  0  0
    1.3191    0.4704   -0.0130 C   0  0  0  0  0  0  0  0  0  0  0  0
   -4.2530   -1.2717    0.4972 C   0  0  0  0  0  0  0  0  0  0  0  0
   -4.7587   -0.4173   -1.6907 C   0  0  0  0  0  0  0  0  0  0  0  0
    2.0649   -0.6972   -0.0266 C   0  0  0  0  0  0  0  0  0  0  0  0
    3.3603   -0.6362   -0.5282 C   0  0  0  0  0  0  0  0  0  0  0  0
    1.5464   -1.9696    0.4563 C   0  0  0  0  0  0  0  0  0  0  0  0
    3.0368    1.6843   -0.9376 C   0  0  0  0  0  0  0  0  0  0  0  0
    3.8631    0.5735   -0.9945 C   0  0  0  0  0  0  0  0  0  0  0  0
   -0.7617    2.1696   -0.3618 H   0  0  0  0  0  0  0  0  0  0  0  0
   -2.4224    0.5222    1.5845 H   0  0  0  0  0  0  0  0  0  0  0  0
   -2.9576    1.9916    0.7755 H   0  0  0  0  0  0  0  0  0  0  0  0
   -2.6704    0.9559   -1.4267 H   0  0  0  0  0  0  0  0  0  0  0  0
   -2.1161   -0.5628   -0.7354 H   0  0  0  0  0  0  0  0  0  0  0  0
   -0.5065    1.8416    2.6826 H   0  0  0  0  0  0  0  0  0  0  0  0
    0.5746    2.7934    1.6615 H   0  0  0  0  0  0  0  0  0  0  0  0
   -1.1109    3.2832    1.8488 H   0  0  0  0  0  0  0  0  0  0  0  0
   -0.1934   -0.3517    1.1069 H   0  0  0  0  0  0  0  0  0  0  0  0
   -5.2995   -1.5787    0.6095 H   0  0  0  0  0  0  0  0  0  0  0  0
   -3.6886   -2.1318    0.1184 H   0  0  0  0  0  0  0  0  0  0  0  0
   -3.8992   -1.0433    1.5068 H   0  0  0  0  0  0  0  0  0  0  0  0
   -4.2348   -1.2304   -2.2062 H   0  0  0  0  0  0  0  0  0  0  0  0
   -5.8097   -0.7040   -1.5723 H   0  0  0  0  0  0  0  0  0  0  0  0
   -4.7492    0.4666   -2.3383 H   0  0  0  0  0  0  0  0  0  0  0  0
    3.9870   -1.5235   -0.5614 H   0  0  0  0  0  0  0  0  0  0  0  0
    3.3813    2.6514   -1.2886 H   0  0  0  0  0  0  0  0  0  0  0  0
    4.8698    0.6447   -1.3899 H   0  0  0  0  0  0  0  0  0  0  0  0
    0.5052   -3.6826   -0.1737 H   0  0  0  0  0  0  0  0  0  0  0  0
    0.7755   -2.5251   -1.4310 H   0  0  0  0  0  0  0  0  0  0  0  0
  1 15  2  0  0  0  0
  2  6  1  0  0  0  0
  2 10  1  0  0  0  0
  2 26  1  0  0  0  0
  3  8  1  0  0  0  0
  3 11  1  0  0  0  0
  3 12  1  0  0  0  0
  4 10  1  0  0  0  0
  4 16  2  0  0  0  0
  5 15  1  0  0  0  0
  5 36  1  0  0  0  0
  5 37  1  0  0  0  0
  6  7  1  0  0  0  0
  6  9  1  0  0  0  0
  6 18  1  6  0  0  0
  7  8  1  0  0  0  0
  7 19  1  0  0  0  0
  7 20  1  0  0  0  0
  8 21  1  0  0  0  0
  8 22  1  0  0  0  0
  9 23  1  0  0  0  0
  9 24  1  0  0  0  0
  9 25  1  0  0  0  0
 10 13  2  0  0  0  0
 11 27  1  0  0  0  0
 11 28  1  0  0  0  0
 11 29  1  0  0  0  0
 12 30  1  0  0  0  0
 12 31  1  0  0  0  0
 12 32  1  0  0  0  0
 13 14  1  0  0  0  0
 13 15  1  0  0  0  0
 14 17  2  0  0  0  0
 14 33  1  0  0  0  0
 16 17  1  0  0  0  0
 16 34  1  0  0  0  0
 17 35  1  0  0  0  0
M  END
>  <PUBCHEM_COMPOUND_CID>
54968725

>  <PUBCHEM_CONFORMER_RMSD>
0.8

>  <PUBCHEM_CONFORMER_DIVERSEORDER>
1
110
16
11
117
90
108
120
78
14
109
115
81
126
140
100
33
5
61
122
6
112
119
34
71
84
41
8
114
129
57
51
133
80
68
125
58
134
53
92
95
13
131
47
132
74
66
26
106
2
3
38
101
116
113
49
42
98
19
28
32
76
138
20
24
21
75
97
40
60
104
79
103
124
39
111
137
48
25
118
127
36
44
67
135
91
64
7
128
35
31
55
9
86
102
54
52
12
50
107
88
123
27
63
29
45
77
130
37
93
56
82
10
83
136
121
23
59
43
73
70
62
18
139
17
99
69
96
46
87
105
85
4
72
15
30
22
65
94
89

>  <PUBCHEM_MMFF94_PARTIAL_CHARGES>
21
1 -0.57
10 0.41
11 0.27
12 0.27
13 0.09
14 -0.15
15 0.54
16 0.16
17 -0.15
2 -0.87
26 0.4
3 -0.81
33 0.15
34 0.15
35 0.15
36 0.37
37 0.37
4 -0.62
5 -0.8
6 0.37
8 0.27

>  <PUBCHEM_EFFECTIVE_ROTOR_COUNT>
6

>  <PUBCHEM_PHARMACOPHORE_FEATURES>
7
1 1 acceptor
1 2 cation
1 2 donor
1 3 cation
1 4 acceptor
1 5 donor
6 4 10 13 14 16 17 rings

>  <PUBCHEM_HEAVY_ATOM_COUNT>
17

>  <PUBCHEM_ATOM_DEF_STEREO_COUNT>
0

>  <PUBCHEM_ATOM_UDEF_STEREO_COUNT>
1

>  <PUBCHEM_BOND_DEF_STEREO_COUNT>
0

>  <PUBCHEM_BOND_UDEF_STEREO_COUNT>
0

>  <PUBCHEM_ISOTOPIC_ATOM_COUNT>
0

>  <PUBCHEM_COMPONENT_COUNT>
1

>  <PUBCHEM_CACTVS_TAUTO_COUNT>
7

>  <PUBCHEM_CONFORMER_ID>
0346C19500000001

>  <PUBCHEM_MMFF94_ENERGY>
54.2831

>  <PUBCHEM_FEATURE_SELFOVERLAP>
35.521

>  <PUBCHEM_SHAPE_FINGERPRINT>
11578080 2 18126257797576474544
11806522 49 18341615880618164764
12553582 1 18131345324314563855
12788726 201 17986959549025660153
13009979 54 17983294820534768154
13083527 12 17751621179648556170
14178342 30 17981038609741690402
14251717 144 18334577932194687548
14576447 43 18413671305402079566
14787075 74 17987510571612307096
15099037 8 18124313805119564219
15183329 4 17916852557946696485
15375462 189 18272376364904787145
15757776 16 18334576802623537332
15852999 172 17168438120305209360
16752209 62 17703783670707591053
18222031 100 16844998100936272173
18915474 69 18202001044815552055
200 152 18412548699556077353
20645477 70 18335700525156346135
23402539 116 18272662224943198324
235170 7 17458334261195302567
23596394 208 18261939826435642453
23598291 2 18123196709858962737
23598294 1 17631742551779329289
2748010 2 18045813275318183968
2871803 45 18410012139205208661
3060560 45 18187364367712632420
4409770 3 15319101709032720561
57096353 35 18340217344308100972
58051976 378 18333729117581151759
603831 33 18342175553226819661
960060 61 18339626911533848285

>  <PUBCHEM_SHAPE_MULTIPOLES>
324.06
8
2.59
1.36
7.85
0.65
0.12
1.48
-3.76
-1.08
1
0.42
-0.12
-1.09

>  <PUBCHEM_SHAPE_SELFOVERLAP>
651.758

>  <PUBCHEM_SHAPE_VOLUME>
191.1

>  <PUBCHEM_COORDINATE_TYPE>
2
5
10

$$$$
