54988145
 OpenBabel01182520543D

 33 33  0  0  1  0  0  0  0  0999 V2000
    0.3912   -2.4816   -1.0323 O   0  0  0  0  0  0  0  0  0  0  0  0
   -0.3158    0.3233    0.7742 N   0  0  0  0  0  0  0  0  0  0  0  0
    1.2685    1.8330   -0.0992 N   0  0  0  0  0  0  0  0  0  0  0  0
    1.5591   -2.5796    0.9387 N   0  0  0  0  0  0  0  0  0  0  0  0
   -4.6897   -0.6908   -1.0916 N   0  0  0  0  0  0  0  0  0  0  0  0
   -1.4345   -0.3534    0.1575 C   0  0  0  0  0  0  0  0  0  0  0  0
   -2.6756    0.5453    0.0766 C   0  0  1  0  0  0  0  0  0  0  0  0
   -0.4521    0.7791    2.1577 C   0  0  0  0  0  0  0  0  0  0  0  0
    0.8753    0.5510    0.0730 C   0  0  0  0  0  0  0  0  0  0  0  0
   -2.3815    1.8723   -0.6231 C   0  0  0  0  0  0  0  0  0  0  0  0
    1.5758   -0.5458   -0.4029 C   0  0  0  0  0  0  0  0  0  0  0  0
    0.5879    0.1076    3.0336 C   0  0  0  0  0  0  0  0  0  0  0  0
    2.7558   -0.3118   -1.1003 C   0  0  0  0  0  0  0  0  0  0  0  0
   -3.8024   -0.1470   -0.5783 C   0  0  0  0  0  0  0  0  0  0  0  0
    1.1247   -1.9162   -0.2040 C   0  0  0  0  0  0  0  0  0  0  0  0
    2.4202    2.0212   -0.7818 C   0  0  0  0  0  0  0  0  0  0  0  0
    3.1930    0.9933   -1.2977 C   0  0  0  0  0  0  0  0  0  0  0  0
   -1.6685   -1.2680    0.7176 H   0  0  0  0  0  0  0  0  0  0  0  0
   -1.1999   -0.6628   -0.8682 H   0  0  0  0  0  0  0  0  0  0  0  0
   -3.0115    0.7893    1.0920 H   0  0  0  0  0  0  0  0  0  0  0  0
   -0.3427    1.8686    2.2075 H   0  0  0  0  0  0  0  0  0  0  0  0
   -1.4400    0.5373    2.5636 H   0  0  0  0  0  0  0  0  0  0  0  0
   -1.6632    2.4785   -0.0630 H   0  0  0  0  0  0  0  0  0  0  0  0
   -3.2952    2.4694   -0.7268 H   0  0  0  0  0  0  0  0  0  0  0  0
   -1.9816    1.7100   -1.6306 H   0  0  0  0  0  0  0  0  0  0  0  0
    0.4698   -0.9803    3.0210 H   0  0  0  0  0  0  0  0  0  0  0  0
    1.6097    0.3463    2.7223 H   0  0  0  0  0  0  0  0  0  0  0  0
    0.4741    0.4413    4.0703 H   0  0  0  0  0  0  0  0  0  0  0  0
    3.3423   -1.1372   -1.4950 H   0  0  0  0  0  0  0  0  0  0  0  0
    2.7175    3.0569   -0.9087 H   0  0  0  0  0  0  0  0  0  0  0  0
    4.1096    1.1994   -1.8384 H   0  0  0  0  0  0  0  0  0  0  0  0
    2.1699   -2.1386    1.6188 H   0  0  0  0  0  0  0  0  0  0  0  0
    1.2784   -3.5365    1.1249 H   0  0  0  0  0  0  0  0  0  0  0  0
  1 15  2  0  0  0  0
  2  6  1  0  0  0  0
  2  8  1  0  0  0  0
  2  9  1  0  0  0  0
  3  9  1  0  0  0  0
  3 16  2  0  0  0  0
  4 15  1  0  0  0  0
  4 32  1  0  0  0  0
  4 33  1  0  0  0  0
  5 14  3  0  0  0  0
  6  7  1  0  0  0  0
  6 18  1  0  0  0  0
  6 19  1  0  0  0  0
  7 10  1  0  0  0  0
  7 14  1  0  0  0  0
  7 20  1  1  0  0  0
  8 12  1  0  0  0  0
  8 21  1  0  0  0  0
  8 22  1  0  0  0  0
  9 11  2  0  0  0  0
 10 23  1  0  0  0  0
 10 24  1  0  0  0  0
 10 25  1  0  0  0  0
 11 13  1  0  0  0  0
 11 15  1  0  0  0  0
 12 26  1  0  0  0  0
 12 27  1  0  0  0  0
 12 28  1  0  0  0  0
 13 17  2  0  0  0  0
 13 29  1  0  0  0  0
 16 17  1  0  0  0  0
 16 30  1  0  0  0  0
 17 31  1  0  0  0  0
M  END
>  <PUBCHEM_COMPOUND_CID>
54988145

>  <PUBCHEM_CONFORMER_RMSD>
0.6

>  <PUBCHEM_CONFORMER_DIVERSEORDER>
2
121
87
28
49
129
190
183
224
210
97
96
124
188
264
115
181
214
107
204
171
175
185
259
26
213
118
86
164
145
260
172
223
195
246
245
218
229
148
160
48
102
126
267
150
208
56
134
111
237
67
135
119
167
1
174
249
169
233
15
105
238
45
241
108
202
20
159
170
263
261
131
40
236
193
83
95
166
200
80
239
92
242
253
147
128
141
217
157
98
180
250
266
198
113
207
158
103
58
41
194
265
69
99
216
144
199
256
25
173
165
73
262
81
225
42
206
101
187
62
156
235
18
212
251
54
63
248
197
215
191
152
82
230
122
106
39
112
132
33
22
116
133
220
76
184
14
226
151
61
79
252
142
117
36
127
244
17
189
57
146
232
29
168
234
35
72
243
64
203
91
19
3
162
227
110
47
219
211
139
247
205
140
34
66
258
179
21
46
257
60
254
137
114
78
38
130
88
70
123
222
231
51
74
24
13
240
163
50
196
255
71
27
161
52
6
149
104
16
55
155
177
65
32
23
186
192
109
143
201
93
138
84
85
5
100
182
136
10
11
153
12
77
209
94
75
228
8
53
90
43
120
68
221
7
44
89
9
176
31
59
125
4
178
37
154
30

>  <PUBCHEM_MMFF94_PARTIAL_CHARGES>
20
1 -0.57
11 0.09
13 -0.15
14 0.36
15 0.54
16 0.16
17 -0.15
2 -0.84
29 0.15
3 -0.62
30 0.15
31 0.15
32 0.37
33 0.37
4 -0.8
5 -0.56
6 0.37
7 0.2
8 0.37
9 0.41

>  <PUBCHEM_EFFECTIVE_ROTOR_COUNT>
5

>  <PUBCHEM_PHARMACOPHORE_FEATURES>
7
1 1 acceptor
1 10 hydrophobe
1 2 cation
1 3 acceptor
1 4 donor
1 5 acceptor
6 3 9 11 13 16 17 rings

>  <PUBCHEM_HEAVY_ATOM_COUNT>
17

>  <PUBCHEM_ATOM_DEF_STEREO_COUNT>
0

>  <PUBCHEM_ATOM_UDEF_STEREO_COUNT>
1

>  <PUBCHEM_BOND_DEF_STEREO_COUNT>
0

>  <PUBCHEM_BOND_UDEF_STEREO_COUNT>
0

>  <PUBCHEM_ISOTOPIC_ATOM_COUNT>
0

>  <PUBCHEM_COMPONENT_COUNT>
1

>  <PUBCHEM_CACTVS_TAUTO_COUNT>
2

>  <PUBCHEM_CONFORMER_ID>
03470D7100000002

>  <PUBCHEM_MMFF94_ENERGY>
62.6122

>  <PUBCHEM_FEATURE_SELFOVERLAP>
35.521

>  <PUBCHEM_SHAPE_FINGERPRINT>
11067466 332 18131057260451904299
11578080 2 17772453617427677184
12138202 97 17096387161706949362
12423570 1 13803384338232737394
12707595 3 16702013167579123621
12716301 132 17552052409766342394
13004483 165 16817689225067384779
13464514 151 17677905521701629148
13898156 1 17056426318033977280
14614273 12 17259372357808134548
14787075 74 17417232351663673232
14817 1 8960137808089111202
15852999 172 16877959247027315890
16752209 62 16773517656050490909
16945 1 18186811270087127072
19010151 120 18269845211891538734
20626108 58 18121760765038001755
20645477 70 18411418384997822439
21452121 199 18194381326182339739
21501502 16 18265052440584782989
21947302 44 17968100793587616748
228727 97 17560540433484949824
23382010 3 18057324096318265653
23419403 2 16339205339939680146
25 1 17968674743100223116
257057 1 17612021578132306350
2748010 2 18049461518811840740
298252 57 18189055459440342392
3060560 45 18336260253451649261
3082319 5 18410577245496047685
81228 2 17330565748322312322

>  <PUBCHEM_SHAPE_MULTIPOLES>
324.06
5.54
2.27
1.93
5.86
0.8
2.08
-0.85
-3.56
-1.3
-0.47
-0.22
0.06
-0.52

>  <PUBCHEM_SHAPE_SELFOVERLAP>
661.552

>  <PUBCHEM_SHAPE_VOLUME>
185.5

>  <PUBCHEM_COORDINATE_TYPE>
2
5
10

$$$$
