55028546
 OpenBabel01182520543D

 43 43  0  0  0  0  0  0  0  0999 V2000
   -0.4814   -0.7811   -2.1752 O   0  0  0  0  0  0  0  0  0  0  0  0
    4.2240    0.0810    0.6422 N   0  0  0  0  0  0  0  0  0  0  0  0
    0.5291   -1.9631   -0.4538 N   0  0  0  0  0  0  0  0  0  0  0  0
   -1.3865    1.4015   -0.3542 N   0  0  0  0  0  0  0  0  0  0  0  0
   -3.1868    0.5577    0.9373 N   0  0  0  0  0  0  0  0  0  0  0  0
    2.8212   -1.1993   -0.9491 C   0  0  0  0  0  0  0  0  0  0  0  0
    3.2090   -0.9575    0.5125 C   0  0  0  0  0  0  0  0  0  0  0  0
    1.7494   -2.2692   -1.1488 C   0  0  0  0  0  0  0  0  0  0  0  0
   -1.6867   -0.9788   -0.1736 C   0  0  0  0  0  0  0  0  0  0  0  0
   -0.5021   -1.2329   -1.0332 C   0  0  0  0  0  0  0  0  0  0  0  0
   -1.7437    2.7537   -0.0752 C   0  0  0  0  0  0  0  0  0  0  0  0
    4.8995   -0.0171    1.9374 C   0  0  0  0  0  0  0  0  0  0  0  0
    3.6278    1.4082    0.4802 C   0  0  0  0  0  0  0  0  0  0  0  0
   -2.1150    0.2972    0.1554 C   0  0  0  0  0  0  0  0  0  0  0  0
   -0.8172    3.7190   -0.8072 C   0  0  0  0  0  0  0  0  0  0  0  0
   -2.4046   -2.0569    0.3321 C   0  0  0  0  0  0  0  0  0  0  0  0
    0.6368    3.5820   -0.3773 C   0  0  0  0  0  0  0  0  0  0  0  0
   -3.5131   -1.8292    1.1401 C   0  0  0  0  0  0  0  0  0  0  0  0
   -3.8597   -0.5151    1.4106 C   0  0  0  0  0  0  0  0  0  0  0  0
    2.4510   -0.2714   -1.4003 H   0  0  0  0  0  0  0  0  0  0  0  0
    3.7133   -1.4906   -1.5180 H   0  0  0  0  0  0  0  0  0  0  0  0
    2.3271   -0.7241    1.1226 H   0  0  0  0  0  0  0  0  0  0  0  0
    3.6023   -1.9097    0.8935 H   0  0  0  0  0  0  0  0  0  0  0  0
    1.5381   -2.3859   -2.2174 H   0  0  0  0  0  0  0  0  0  0  0  0
    2.1045   -3.2334   -0.7700 H   0  0  0  0  0  0  0  0  0  0  0  0
    0.4332   -2.2846    0.5053 H   0  0  0  0  0  0  0  0  0  0  0  0
   -1.6934    2.9473    1.0030 H   0  0  0  0  0  0  0  0  0  0  0  0
   -2.7732    2.9483   -0.3990 H   0  0  0  0  0  0  0  0  0  0  0  0
    5.6811    0.7461    2.0232 H   0  0  0  0  0  0  0  0  0  0  0  0
    4.2039    0.1049    2.7757 H   0  0  0  0  0  0  0  0  0  0  0  0
    5.3997   -0.9866    2.0403 H   0  0  0  0  0  0  0  0  0  0  0  0
    2.8264    1.5966    1.2039 H   0  0  0  0  0  0  0  0  0  0  0  0
    4.3892    2.1861    0.6103 H   0  0  0  0  0  0  0  0  0  0  0  0
    3.2307    1.5485   -0.5291 H   0  0  0  0  0  0  0  0  0  0  0  0
   -1.1492    4.7456   -0.6129 H   0  0  0  0  0  0  0  0  0  0  0  0
   -0.8864    3.5590   -1.8900 H   0  0  0  0  0  0  0  0  0  0  0  0
   -0.8464    1.2230   -1.1948 H   0  0  0  0  0  0  0  0  0  0  0  0
   -2.1153   -3.0790    0.1026 H   0  0  0  0  0  0  0  0  0  0  0  0
    1.0380    2.6005   -0.6442 H   0  0  0  0  0  0  0  0  0  0  0  0
    1.2499    4.3394   -0.8760 H   0  0  0  0  0  0  0  0  0  0  0  0
    0.7425    3.7177    0.7037 H   0  0  0  0  0  0  0  0  0  0  0  0
   -4.0883   -2.6541    1.5447 H   0  0  0  0  0  0  0  0  0  0  0  0
   -4.7160   -0.2839    2.0354 H   0  0  0  0  0  0  0  0  0  0  0  0
  1 10  2  0  0  0  0
  2  7  1  0  0  0  0
  2 12  1  0  0  0  0
  2 13  1  0  0  0  0
  3  8  1  0  0  0  0
  3 10  1  0  0  0  0
  3 26  1  0  0  0  0
  4 11  1  0  0  0  0
  4 14  1  0  0  0  0
  4 37  1  0  0  0  0
  5 14  1  0  0  0  0
  5 19  2  0  0  0  0
  6  7  1  0  0  0  0
  6  8  1  0  0  0  0
  6 20  1  0  0  0  0
  6 21  1  0  0  0  0
  7 22  1  0  0  0  0
  7 23  1  0  0  0  0
  8 24  1  0  0  0  0
  8 25  1  0  0  0  0
  9 10  1  0  0  0  0
  9 14  2  0  0  0  0
  9 16  1  0  0  0  0
 11 15  1  0  0  0  0
 11 27  1  0  0  0  0
 11 28  1  0  0  0  0
 12 29  1  0  0  0  0
 12 30  1  0  0  0  0
 12 31  1  0  0  0  0
 13 32  1  0  0  0  0
 13 33  1  0  0  0  0
 13 34  1  0  0  0  0
 15 17  1  0  0  0  0
 15 35  1  0  0  0  0
 15 36  1  0  0  0  0
 16 18  2  0  0  0  0
 16 38  1  0  0  0  0
 17 39  1  0  0  0  0
 17 40  1  0  0  0  0
 17 41  1  0  0  0  0
 18 19  1  0  0  0  0
 18 42  1  0  0  0  0
 19 43  1  0  0  0  0
M  END
>  <PUBCHEM_COMPOUND_CID>
55028546

>  <PUBCHEM_CONFORMER_RMSD>
0.8

>  <PUBCHEM_CONFORMER_DIVERSEORDER>
1
142
48
138
37
188
98
172
93
224
106
171
128
180
44
209
193
230
123
87
137
107
76
109
19
151
77
159
196
31
231
114
195
179
149
65
71
228
206
192
133
88
160
207
23
144
122
155
53
54
112
11
35
202
178
215
127
119
66
141
63
163
203
187
30
166
28
78
72
157
218
130
74
15
94
89
167
152
55
181
83
68
22
212
194
75
132
126
2
204
173
90
79
158
85
220
136
205
198
101
223
216
40
41
156
183
213
14
120
5
217
121
49
226
143
191
95
36
92
165
150
175
81
102
219
199
200
147
46
45
108
176
104
13
211
197
225
145
8
182
116
208
67
20
115
10
34
97
221
148
38
229
201
190
3
91
168
134
96
82
52
140
26
25
189
162
6
69
174
70
57
105
118
164
24
110
50
161
100
113
62
56
103
7
154
139
58
12
177
84
27
17
131
86
59
222
124
9
18
129
135
169
51
117
111
73
170
43
4
61
33
39
47
16
186
21
153
185
42
146
60
32
99
29
80
184
64
227
210
125
214

>  <PUBCHEM_MMFF94_PARTIAL_CHARGES>
21
1 -0.57
10 0.54
11 0.37
12 0.27
13 0.27
14 0.41
16 -0.15
18 -0.15
19 0.16
2 -0.81
26 0.37
3 -0.73
37 0.4
38 0.15
4 -0.87
42 0.15
43 0.15
5 -0.62
7 0.27
8 0.3
9 0.09

>  <PUBCHEM_EFFECTIVE_ROTOR_COUNT>
9

>  <PUBCHEM_PHARMACOPHORE_FEATURES>
8
1 1 acceptor
1 17 hydrophobe
1 2 cation
1 3 donor
1 4 cation
1 4 donor
1 5 acceptor
6 5 9 14 16 18 19 rings

>  <PUBCHEM_HEAVY_ATOM_COUNT>
19

>  <PUBCHEM_ATOM_DEF_STEREO_COUNT>
0

>  <PUBCHEM_ATOM_UDEF_STEREO_COUNT>
0

>  <PUBCHEM_BOND_DEF_STEREO_COUNT>
0

>  <PUBCHEM_BOND_UDEF_STEREO_COUNT>
0

>  <PUBCHEM_ISOTOPIC_ATOM_COUNT>
0

>  <PUBCHEM_COMPONENT_COUNT>
1

>  <PUBCHEM_CACTVS_TAUTO_COUNT>
7

>  <PUBCHEM_CONFORMER_ID>
0347AB4200000001

>  <PUBCHEM_MMFF94_ENERGY>
44.308

>  <PUBCHEM_FEATURE_SELFOVERLAP>
40.595

>  <PUBCHEM_SHAPE_FINGERPRINT>
10670039 82 18409459085700632060
11221954 11 17838327485056061068
12035758 1 18335148540703143089
12553582 1 18337403732617410125
12596602 18 17385720305936693976
12633257 1 18260551172818874810
12769317 202 16171719477780373997
13083527 12 18053109703342526719
14022349 108 18049736405493602129
14081887 123 18262523589289039371
15295992 7 17765998294260331902
15475509 35 16736108065616297403
16120349 306 17476354380264249344
17780758 139 17823956980330304346
21524375 3 17112977362352226669
21650355 55 18333737931244894499
23503958 25 18269281175247990734
23557571 272 18264501606296208238
23559900 14 18192448375945728967
3187 122 18334570239655520416
3524813 1 18059571369621504016
43471831 8 17329445346295303243
5312544 6 17257656041394577487
57091435 65 18119250803710000468
6049 1 18056493759166026222
621550 5 17052231719639268647
6438718 38 11781236348312988373
81228 2 17834433071232236075
84936 182 16318094162530526789
90316 7 18335150752062180177
9862522 239 18057296463152693938
9925002 15 17126191773688343623

>  <PUBCHEM_SHAPE_MULTIPOLES>
365.22
7.71
3.93
1.52
6.64
4.81
0
-2.16
5.37
-1.06
-1.2
0.55
-0.53
1.02

>  <PUBCHEM_SHAPE_SELFOVERLAP>
722.932

>  <PUBCHEM_SHAPE_VOLUME>
217.6

>  <PUBCHEM_COORDINATE_TYPE>
2
5
10

$$$$
