55037218
 OpenBabel01182520543D

 36 37  0  0  0  0  0  0  0  0999 V2000
   -0.3383    2.1058   -0.8411 O   0  0  0  0  0  0  0  0  0  0  0  0
    0.6009    0.0361   -0.3839 N   0  0  0  0  0  0  0  0  0  0  0  0
   -4.0702    0.7730    0.5110 N   0  0  0  0  0  0  0  0  0  0  0  0
   -5.5933   -1.0548    0.6368 N   0  0  0  0  0  0  0  0  0  0  0  0
    1.9776    0.4234   -0.6155 C   0  0  0  0  0  0  0  0  0  0  0  0
    2.5626    1.0207    0.6683 C   0  0  0  0  0  0  0  0  0  0  0  0
    2.7540   -0.7373   -1.2455 C   0  0  0  0  0  0  0  0  0  0  0  0
    4.0850    1.1243    0.7004 C   0  0  0  0  0  0  0  0  0  0  0  0
    3.3420   -1.7398   -0.2534 C   0  0  0  0  0  0  0  0  0  0  0  0
    4.7512   -0.1521    1.2119 C   0  0  0  0  0  0  0  0  0  0  0  0
    4.7272   -1.3321    0.2462 C   0  0  0  0  0  0  0  0  0  0  0  0
   -0.4507    0.9259   -0.5195 C   0  0  0  0  0  0  0  0  0  0  0  0
   -1.7997    0.3803   -0.2207 C   0  0  0  0  0  0  0  0  0  0  0  0
   -2.0761   -0.9736   -0.3761 C   0  0  0  0  0  0  0  0  0  0  0  0
   -2.8219    1.2043    0.2216 C   0  0  0  0  0  0  0  0  0  0  0  0
   -3.3485   -1.4551   -0.0885 C   0  0  0  0  0  0  0  0  0  0  0  0
   -4.3016   -0.5490    0.3479 C   0  0  0  0  0  0  0  0  0  0  0  0
    1.9579    1.2229   -1.3686 H   0  0  0  0  0  0  0  0  0  0  0  0
    2.2127    0.4606    1.5458 H   0  0  0  0  0  0  0  0  0  0  0  0
    2.1451    2.0298    0.7886 H   0  0  0  0  0  0  0  0  0  0  0  0
    3.5602   -0.3335   -1.8714 H   0  0  0  0  0  0  0  0  0  0  0  0
    2.0899   -1.2767   -1.9343 H   0  0  0  0  0  0  0  0  0  0  0  0
    4.4859    1.4151   -0.2771 H   0  0  0  0  0  0  0  0  0  0  0  0
    4.3499    1.9302    1.3967 H   0  0  0  0  0  0  0  0  0  0  0  0
    2.6601   -1.9224    0.5847 H   0  0  0  0  0  0  0  0  0  0  0  0
    3.4551   -2.6984   -0.7759 H   0  0  0  0  0  0  0  0  0  0  0  0
    4.2920   -0.4518    2.1622 H   0  0  0  0  0  0  0  0  0  0  0  0
    5.8002    0.0744    1.4407 H   0  0  0  0  0  0  0  0  0  0  0  0
    5.3774   -1.1130   -0.6100 H   0  0  0  0  0  0  0  0  0  0  0  0
    5.1775   -2.1936    0.7553 H   0  0  0  0  0  0  0  0  0  0  0  0
    0.4406   -0.8940   -0.0113 H   0  0  0  0  0  0  0  0  0  0  0  0
   -1.3361   -1.6780   -0.7440 H   0  0  0  0  0  0  0  0  0  0  0  0
   -2.6726    2.2696    0.3681 H   0  0  0  0  0  0  0  0  0  0  0  0
   -3.5734   -2.5095   -0.2125 H   0  0  0  0  0  0  0  0  0  0  0  0
   -6.2882   -0.3881    0.9494 H   0  0  0  0  0  0  0  0  0  0  0  0
   -5.9090   -1.8805    0.1429 H   0  0  0  0  0  0  0  0  0  0  0  0
  1 12  2  0  0  0  0
  2  5  1  0  0  0  0
  2 12  1  0  0  0  0
  2 31  1  0  0  0  0
  3 15  1  0  0  0  0
  3 17  2  0  0  0  0
  4 17  1  0  0  0  0
  4 35  1  0  0  0  0
  4 36  1  0  0  0  0
  5  6  1  0  0  0  0
  5  7  1  0  0  0  0
  5 18  1  0  0  0  0
  6  8  1  0  0  0  0
  6 19  1  0  0  0  0
  6 20  1  0  0  0  0
  7  9  1  0  0  0  0
  7 21  1  0  0  0  0
  7 22  1  0  0  0  0
  8 10  1  0  0  0  0
  8 23  1  0  0  0  0
  8 24  1  0  0  0  0
  9 11  1  0  0  0  0
  9 25  1  0  0  0  0
  9 26  1  0  0  0  0
 10 11  1  0  0  0  0
 10 27  1  0  0  0  0
 10 28  1  0  0  0  0
 11 29  1  0  0  0  0
 11 30  1  0  0  0  0
 12 13  1  0  0  0  0
 13 14  1  0  0  0  0
 13 15  2  0  0  0  0
 14 16  2  0  0  0  0
 14 32  1  0  0  0  0
 15 33  1  0  0  0  0
 16 17  1  0  0  0  0
 16 34  1  0  0  0  0
M  END
>  <PUBCHEM_COMPOUND_CID>
55037218

>  <PUBCHEM_CONFORMER_RMSD>
0.6

>  <PUBCHEM_CONFORMER_DIVERSEORDER>
2
17
29
5
41
37
18
40
24
8
9
42
12
38
39
23
1
10
30
6
25
33
11
21
13
15
34
31
26
19
14
36
22
20
7
32
35
16
3
28
4
27

>  <PUBCHEM_MMFF94_PARTIAL_CHARGES>
17
1 -0.57
12 0.54
13 0.09
14 -0.15
15 0.16
16 -0.15
17 0.41
2 -0.73
3 -0.62
31 0.37
32 0.15
33 0.15
34 0.15
35 0.4
36 0.4
4 -0.9
5 0.3

>  <PUBCHEM_EFFECTIVE_ROTOR_COUNT>
4.4

>  <PUBCHEM_PHARMACOPHORE_FEATURES>
6
1 1 acceptor
1 2 donor
1 4 donor
3 3 4 17 cation
6 3 13 14 15 16 17 rings
7 5 6 7 8 9 10 11 rings

>  <PUBCHEM_HEAVY_ATOM_COUNT>
17

>  <PUBCHEM_ATOM_DEF_STEREO_COUNT>
0

>  <PUBCHEM_ATOM_UDEF_STEREO_COUNT>
0

>  <PUBCHEM_BOND_DEF_STEREO_COUNT>
0

>  <PUBCHEM_BOND_UDEF_STEREO_COUNT>
0

>  <PUBCHEM_ISOTOPIC_ATOM_COUNT>
0

>  <PUBCHEM_COMPONENT_COUNT>
1

>  <PUBCHEM_CACTVS_TAUTO_COUNT>
7

>  <PUBCHEM_CONFORMER_ID>
0347CD2200000002

>  <PUBCHEM_MMFF94_ENERGY>
44.6062

>  <PUBCHEM_FEATURE_SELFOVERLAP>
30.446

>  <PUBCHEM_SHAPE_FINGERPRINT>
12251169 10 18131067151650719860
12507560 40 18131635564771081413
12596602 18 17346884463694841707
12633257 1 17346314937861217995
12670546 177 11025795396659059433
12892183 10 17917715673366204921
13551218 46 18411139117402530675
13675066 3 18409167710043354245
1420 369 18186521007501898835
14252887 29 18408605876807810304
14341114 176 18202566181187005648
15885798 251 18260551125658623701
1813 80 17530967981645097556
19050596 39 18131346440562877790
19141452 34 18341894121495291599
193927 3 17676216766114147163
19784866 240 15430305898495628088
200 152 14779264202521696052
20281475 54 18261958552055073143
20369508 70 14562530704507242212
204376 136 15554727772112882349
20645477 70 13045943465666042504
20671657 53 16225764120970611940
21065199 12 18272930492710519656
212847 35 11383839255527620414
21501925 9 18408884057449737380
22646028 1 17313103042556611858
22646028 28 18040154024017977690
22854114 59 17704072897482890988
23402539 116 17749383737557067772
23559900 14 18342740689255284620
26918003 58 18273209772895593112
29717793 49 14418127388402900826
3060560 45 12324242754987928976
32948 21 8502383238823747650
351380 3 17748825198577504522
42 15 18410575071931203314
4214541 1 18341332201859183113
449060 50 17846780740729700916
4990 188 11025793189430984384
5104073 3 18343022155409705977
5374978 207 17989210347362371977
5924683 9 17774993652913074799

>  <PUBCHEM_SHAPE_MULTIPOLES>
329.04
11.39
1.73
0.98
2.76
0.01
0.03
-3.57
-3.92
-0.26
0.12
-0.62
0.05
0.52

>  <PUBCHEM_SHAPE_SELFOVERLAP>
678.075

>  <PUBCHEM_SHAPE_VOLUME>
185.6

>  <PUBCHEM_COORDINATE_TYPE>
2
5
10

$$$$
