55037128
 OpenBabel01182520543D

 33 34  0  0  0  0  0  0  0  0999 V2000
    0.9452   -2.5811   -0.7558 O   0  0  0  0  0  0  0  0  0  0  0  0
   -0.2898   -1.2708    0.7065 N   0  0  0  0  0  0  0  0  0  0  0  0
    4.3189   -0.1678   -0.1851 N   0  0  0  0  0  0  0  0  0  0  0  0
    5.1362    2.0437    0.1584 N   0  0  0  0  0  0  0  0  0  0  0  0
   -2.4831   -1.7821   -0.3061 C   0  0  0  0  0  0  0  0  0  0  0  0
   -1.4447   -2.1259    0.7689 C   0  0  0  0  0  0  0  0  0  0  0  0
   -2.9892   -0.3818   -0.2198 C   0  0  0  0  0  0  0  0  0  0  0  0
   -4.1103   -0.0918    0.5579 C   0  0  0  0  0  0  0  0  0  0  0  0
   -2.3415    0.6378   -0.9170 C   0  0  0  0  0  0  0  0  0  0  0  0
    0.8269   -1.5741   -0.0628 C   0  0  0  0  0  0  0  0  0  0  0  0
    1.9477   -0.6012    0.0011 C   0  0  0  0  0  0  0  0  0  0  0  0
   -4.5835    1.2179    0.6383 C   0  0  0  0  0  0  0  0  0  0  0  0
   -2.8145    1.9475   -0.8366 C   0  0  0  0  0  0  0  0  0  0  0  0
   -3.9356    2.2376   -0.0589 C   0  0  0  0  0  0  0  0  0  0  0  0
    1.7182    0.7389    0.2924 C   0  0  0  0  0  0  0  0  0  0  0  0
    3.2546   -1.0004   -0.2277 C   0  0  0  0  0  0  0  0  0  0  0  0
    2.7876    1.6262    0.3452 C   0  0  0  0  0  0  0  0  0  0  0  0
    4.0569    1.1273    0.1010 C   0  0  0  0  0  0  0  0  0  0  0  0
   -3.3232   -2.4841   -0.2286 H   0  0  0  0  0  0  0  0  0  0  0  0
   -2.0519   -1.9520   -1.3017 H   0  0  0  0  0  0  0  0  0  0  0  0
   -1.8763   -2.0111    1.7694 H   0  0  0  0  0  0  0  0  0  0  0  0
   -1.1299   -3.1691    0.6558 H   0  0  0  0  0  0  0  0  0  0  0  0
   -0.2995   -0.4466    1.2978 H   0  0  0  0  0  0  0  0  0  0  0  0
   -4.6227   -0.8769    1.1075 H   0  0  0  0  0  0  0  0  0  0  0  0
   -1.4686    0.4267   -1.5291 H   0  0  0  0  0  0  0  0  0  0  0  0
   -5.4561    1.4440    1.2443 H   0  0  0  0  0  0  0  0  0  0  0  0
   -2.3101    2.7414   -1.3796 H   0  0  0  0  0  0  0  0  0  0  0  0
   -4.3039    3.2574    0.0038 H   0  0  0  0  0  0  0  0  0  0  0  0
    0.7207    1.1346    0.4571 H   0  0  0  0  0  0  0  0  0  0  0  0
    3.5039   -2.0321   -0.4562 H   0  0  0  0  0  0  0  0  0  0  0  0
    2.6158    2.6746    0.5666 H   0  0  0  0  0  0  0  0  0  0  0  0
    4.9547    3.0161   -0.0579 H   0  0  0  0  0  0  0  0  0  0  0  0
    6.0612    1.6759   -0.0268 H   0  0  0  0  0  0  0  0  0  0  0  0
  1 10  2  0  0  0  0
  2  6  1  0  0  0  0
  2 10  1  0  0  0  0
  2 23  1  0  0  0  0
  3 16  1  0  0  0  0
  3 18  2  0  0  0  0
  4 18  1  0  0  0  0
  4 32  1  0  0  0  0
  4 33  1  0  0  0  0
  5  6  1  0  0  0  0
  5  7  1  0  0  0  0
  5 19  1  0  0  0  0
  5 20  1  0  0  0  0
  6 21  1  0  0  0  0
  6 22  1  0  0  0  0
  7  8  2  0  0  0  0
  7  9  1  0  0  0  0
  8 12  1  0  0  0  0
  8 24  1  0  0  0  0
  9 13  2  0  0  0  0
  9 25  1  0  0  0  0
 10 11  1  0  0  0  0
 11 15  1  0  0  0  0
 11 16  2  0  0  0  0
 12 14  2  0  0  0  0
 12 26  1  0  0  0  0
 13 14  1  0  0  0  0
 13 27  1  0  0  0  0
 14 28  1  0  0  0  0
 15 17  2  0  0  0  0
 15 29  1  0  0  0  0
 16 30  1  0  0  0  0
 17 18  1  0  0  0  0
 17 31  1  0  0  0  0
M  END
>  <PUBCHEM_COMPOUND_CID>
55037128

>  <PUBCHEM_CONFORMER_RMSD>
0.6

>  <PUBCHEM_CONFORMER_DIVERSEORDER>
1
9
13
34
33
24
11
51
41
14
8
20
37
6
52
39
36
49
12
10
48
7
46
23
50
38
43
53
16
18
47
15
55
44
45
42
5
19
27
31
17
3
30
40
21
26
35
56
29
54
22
2
4
25
32
28

>  <PUBCHEM_MMFF94_PARTIAL_CHARGES>
29
1 -0.57
10 0.54
11 0.09
12 -0.15
13 -0.15
14 -0.15
15 -0.15
16 0.16
17 -0.15
18 0.41
2 -0.73
23 0.37
24 0.15
25 0.15
26 0.15
27 0.15
28 0.15
29 0.15
3 -0.62
30 0.15
31 0.15
32 0.4
33 0.4
4 -0.9
5 0.14
6 0.3
7 -0.14
8 -0.15
9 -0.15

>  <PUBCHEM_EFFECTIVE_ROTOR_COUNT>
5

>  <PUBCHEM_PHARMACOPHORE_FEATURES>
6
1 1 acceptor
1 2 donor
1 4 donor
3 3 4 18 cation
6 3 11 15 16 17 18 rings
6 7 8 9 12 13 14 rings

>  <PUBCHEM_HEAVY_ATOM_COUNT>
18

>  <PUBCHEM_ATOM_DEF_STEREO_COUNT>
0

>  <PUBCHEM_ATOM_UDEF_STEREO_COUNT>
0

>  <PUBCHEM_BOND_DEF_STEREO_COUNT>
0

>  <PUBCHEM_BOND_UDEF_STEREO_COUNT>
0

>  <PUBCHEM_ISOTOPIC_ATOM_COUNT>
0

>  <PUBCHEM_COMPONENT_COUNT>
1

>  <PUBCHEM_CACTVS_TAUTO_COUNT>
7

>  <PUBCHEM_CONFORMER_ID>
0347CCC800000001

>  <PUBCHEM_MMFF94_ENERGY>
49.57

>  <PUBCHEM_FEATURE_SELFOVERLAP>
30.446

>  <PUBCHEM_SHAPE_FINGERPRINT>
10498660 4 18188481377221931421
10608611 8 18410291414984661663
10646746 165 18408886252431181094
11046707 91 9439412336586695352
11615756 256 18335986457934602660
11715629 250 18409448059870619215
12363563 72 9583513252565445353
12596602 18 16226329330003237496
12633257 1 18263070042135679882
13464514 151 18338520729263062042
14123255 352 18407755932681341517
14123255 52 18337388241044718121
14251764 75 18126574410165956537
14466204 15 18338222878177393552
15196674 1 18410855460133469041
17834072 32 18409729530394256269
18186145 218 18201723950816376050
20645477 56 18335708225700424359
21652331 79 18335420166797142793
21864079 5 18336820897287044489
22182937 141 18410862061999304779
23227448 37 18411981382042669087
23402655 69 18202846565189320804
23557571 272 18191309484116158947
23559900 14 18272087150729682010
25 1 18340767052782253394
27216 239 18260833687699533449
3524813 1 18335417920455627869
4028521 119 18261661636950651175
5104073 3 18334576828066580155
633830 44 18342172246133579246

>  <PUBCHEM_SHAPE_MULTIPOLES>
349.62
10.06
2.71
0.84
3.36
0.26
0.03
-6.47
-0.68
-0.34
0.1
-0.42
0.03
0.58

>  <PUBCHEM_SHAPE_SELFOVERLAP>
740.913

>  <PUBCHEM_SHAPE_VOLUME>
193.3

>  <PUBCHEM_COORDINATE_TYPE>
2
5
10

$$$$
