55036942
 OpenBabel01182520543D

 27 28  0  0  0  0  0  0  0  0999 V2000
   -6.6658    0.0702   -0.0492 I   0  0  0  0  0  0  0  0  0  0  0  0
    0.2255   -1.9115    0.2937 O   0  0  0  0  0  0  0  0  0  0  0  0
   -0.4091    0.3293   -0.0309 N   0  0  0  0  0  0  0  0  0  0  0  0
    3.6446    1.3314    0.3578 N   0  0  0  0  0  0  0  0  0  0  0  0
    5.9168    0.7878   -0.1092 N   0  0  0  0  0  0  0  0  0  0  0  0
   -1.8030    0.2715   -0.0351 C   0  0  0  0  0  0  0  0  0  0  0  0
    1.9340   -0.3504    0.0571 C   0  0  0  0  0  0  0  0  0  0  0  0
    0.4978   -0.7272    0.1275 C   0  0  0  0  0  0  0  0  0  0  0  0
   -2.4508   -0.9522    0.1334 C   0  0  0  0  0  0  0  0  0  0  0  0
   -2.5488    1.4376   -0.2074 C   0  0  0  0  0  0  0  0  0  0  0  0
    2.8962   -1.2660   -0.3546 C   0  0  0  0  0  0  0  0  0  0  0  0
    2.3561    0.9241    0.3994 C   0  0  0  0  0  0  0  0  0  0  0  0
   -3.8443   -1.0101    0.1294 C   0  0  0  0  0  0  0  0  0  0  0  0
   -3.9425    1.3798   -0.2115 C   0  0  0  0  0  0  0  0  0  0  0  0
    4.2321   -0.8844   -0.4104 C   0  0  0  0  0  0  0  0  0  0  0  0
   -4.5902    0.1560   -0.0431 C   0  0  0  0  0  0  0  0  0  0  0  0
    4.5514    0.4141   -0.0471 C   0  0  0  0  0  0  0  0  0  0  0  0
   -0.0353    1.2586   -0.2014 H   0  0  0  0  0  0  0  0  0  0  0  0
   -1.9450   -1.8972    0.2723 H   0  0  0  0  0  0  0  0  0  0  0  0
   -2.0574    2.3982   -0.3394 H   0  0  0  0  0  0  0  0  0  0  0  0
    2.6239   -2.2785   -0.6398 H   0  0  0  0  0  0  0  0  0  0  0  0
    1.6811    1.6910    0.7637 H   0  0  0  0  0  0  0  0  0  0  0  0
   -4.3304   -1.9735    0.2622 H   0  0  0  0  0  0  0  0  0  0  0  0
   -4.5045    2.3004   -0.3474 H   0  0  0  0  0  0  0  0  0  0  0  0
    4.9884   -1.5930   -0.7322 H   0  0  0  0  0  0  0  0  0  0  0  0
    6.6192    0.0694    0.0166 H   0  0  0  0  0  0  0  0  0  0  0  0
    6.1463    1.7356    0.1631 H   0  0  0  0  0  0  0  0  0  0  0  0
  1 16  1  0  0  0  0
  2  8  2  0  0  0  0
  3  6  1  0  0  0  0
  3  8  1  0  0  0  0
  3 18  1  0  0  0  0
  4 12  1  0  0  0  0
  4 17  2  0  0  0  0
  5 17  1  0  0  0  0
  5 26  1  0  0  0  0
  5 27  1  0  0  0  0
  6  9  2  0  0  0  0
  6 10  1  0  0  0  0
  7  8  1  0  0  0  0
  7 11  1  0  0  0  0
  7 12  2  0  0  0  0
  9 13  1  0  0  0  0
  9 19  1  0  0  0  0
 10 14  2  0  0  0  0
 10 20  1  0  0  0  0
 11 15  2  0  0  0  0
 11 21  1  0  0  0  0
 12 22  1  0  0  0  0
 13 16  2  0  0  0  0
 13 23  1  0  0  0  0
 14 16  1  0  0  0  0
 14 24  1  0  0  0  0
 15 17  1  0  0  0  0
 15 25  1  0  0  0  0
M  END
>  <PUBCHEM_COMPOUND_CID>
55036942

>  <PUBCHEM_CONFORMER_RMSD>
0.6

>  <PUBCHEM_CONFORMER_DIVERSEORDER>
1
6
3
5
4
2

>  <PUBCHEM_MMFF94_PARTIAL_CHARGES>
27
1 -0.08
10 -0.15
11 -0.15
12 0.16
13 -0.15
14 -0.15
15 -0.15
16 0.08
17 0.41
18 0.37
19 0.15
2 -0.57
20 0.15
21 0.15
22 0.15
23 0.15
24 0.15
25 0.15
26 0.4
27 0.4
3 -0.55
4 -0.62
5 -0.9
6 0.12
7 0.09
8 0.54
9 -0.15

>  <PUBCHEM_EFFECTIVE_ROTOR_COUNT>
3

>  <PUBCHEM_PHARMACOPHORE_FEATURES>
7
1 1 hydrophobe
1 2 acceptor
1 3 donor
1 5 donor
3 4 5 17 cation
6 4 7 11 12 15 17 rings
6 6 9 10 13 14 16 rings

>  <PUBCHEM_HEAVY_ATOM_COUNT>
17

>  <PUBCHEM_ATOM_DEF_STEREO_COUNT>
0

>  <PUBCHEM_ATOM_UDEF_STEREO_COUNT>
0

>  <PUBCHEM_BOND_DEF_STEREO_COUNT>
0

>  <PUBCHEM_BOND_UDEF_STEREO_COUNT>
0

>  <PUBCHEM_ISOTOPIC_ATOM_COUNT>
0

>  <PUBCHEM_COMPONENT_COUNT>
1

>  <PUBCHEM_CACTVS_TAUTO_COUNT>
7

>  <PUBCHEM_CONFORMER_ID>
0347CC0E00000001

>  <PUBCHEM_MMFF94_ENERGY>
58.6655

>  <PUBCHEM_FEATURE_SELFOVERLAP>
35.521

>  <PUBCHEM_SHAPE_FINGERPRINT>
10968037 39 18408885149088660359
11471102 20 18343865502957173518
12107183 9 17619632380212686267
12236239 1 17346883334276080905
12403259 415 18411409618479343721
12596602 18 15792021111607873864
12730499 353 18413113852896514242
12916748 109 18408888416794017880
13081056 2 18411699876600435869
13533116 47 16056885676032067911
1420 363 18333456439325256163
14251764 18 18259980466755636986
14341114 176 18410862040218584301
15196674 1 18410010996559213397
17834072 33 18060696200260785855
17834076 25 16153426151583469649
18186145 218 18409727327086251662
19489759 90 16008746897342912517
200 152 17775282755582312955
20645477 56 18408039619945777231
20645477 70 18059579027538059174
21267235 1 18410864248174620351
21652331 79 18409165498193374981
221357 26 18202282480953382088
22224240 67 13551473700607042336
23402539 116 18411975896942287622
23402655 69 18201719544269471316
23557571 272 18261112924829874357
23559900 14 18340199786845596745
2916195 48 18342167908491105072
300161 21 17676200265256016579
34797466 226 17846787325004340820
351380 180 18409728473642085600
3545911 37 18411419513946323901
4214541 1 18411982429756414569
42788 4 18412263926429241469
4325135 7 18342737433854450533
4463277 17 18411700968392508609
4990 188 18201443553976729238
5104073 3 18261676944192833201
542803 24 15574436509587956103
59755656 215 18409452457637873886
59755656 520 17749103417695172491
7495541 125 17060049402152844683
77779 3 18412545396625727143

>  <PUBCHEM_SHAPE_MULTIPOLES>
340.98
14.4
1.5
0.66
4.04
0.07
-0.01
-2.21
-0.76
-0.21
0.02
0.08
0
0.42

>  <PUBCHEM_SHAPE_SELFOVERLAP>
710.284

>  <PUBCHEM_SHAPE_VOLUME>
197.6

>  <PUBCHEM_COORDINATE_TYPE>
2
5
10

$$$$
