55037403
 OpenBabel01182520543D

 33 33  0  0  0  0  0  0  0  0999 V2000
    2.2137   -1.6115   -0.7973 O   0  0  0  0  0  0  0  0  0  0  0  0
    0.1229    1.4409    0.8458 O   0  0  0  0  0  0  0  0  0  0  0  0
    3.7520   -0.4491    0.5004 N   0  0  0  0  0  0  0  0  0  0  0  0
    0.2422   -0.8712    0.9989 N   0  0  0  0  0  0  0  0  0  0  0  0
   -3.5792   -1.0317   -0.7543 N   0  0  0  0  0  0  0  0  0  0  0  0
   -5.7644   -0.0971   -0.9235 N   0  0  0  0  0  0  0  0  0  0  0  0
    4.8391   -0.4367   -0.4520 C   0  0  0  0  0  0  0  0  0  0  0  0
    4.8002    0.7855   -1.3614 C   0  0  0  0  0  0  0  0  0  0  0  0
    1.6025   -0.9461    1.4434 C   0  0  0  0  0  0  0  0  0  0  0  0
    2.5229   -1.0396    0.2450 C   0  0  0  0  0  0  0  0  0  0  0  0
    4.9171    2.0944   -0.5932 C   0  0  0  0  0  0  0  0  0  0  0  0
   -1.8192    0.2441    0.3038 C   0  0  0  0  0  0  0  0  0  0  0  0
   -0.3994    0.3352    0.7313 C   0  0  0  0  0  0  0  0  0  0  0  0
   -2.7067    1.2887    0.5373 C   0  0  0  0  0  0  0  0  0  0  0  0
   -2.3008   -0.8844   -0.3399 C   0  0  0  0  0  0  0  0  0  0  0  0
   -4.0301    1.1744    0.1258 C   0  0  0  0  0  0  0  0  0  0  0  0
   -4.4127    0.0043   -0.5101 C   0  0  0  0  0  0  0  0  0  0  0  0
    4.7910   -1.3482   -1.0576 H   0  0  0  0  0  0  0  0  0  0  0  0
    5.7727   -0.4605    0.1199 H   0  0  0  0  0  0  0  0  0  0  0  0
    3.8673    0.7938   -1.9375 H   0  0  0  0  0  0  0  0  0  0  0  0
    5.6238    0.7200   -2.0816 H   0  0  0  0  0  0  0  0  0  0  0  0
    3.9157   -0.0082    1.4007 H   0  0  0  0  0  0  0  0  0  0  0  0
    1.8361   -0.0697    2.0561 H   0  0  0  0  0  0  0  0  0  0  0  0
    1.7204   -1.8497    2.0487 H   0  0  0  0  0  0  0  0  0  0  0  0
    4.0657    2.2427    0.0783 H   0  0  0  0  0  0  0  0  0  0  0  0
    5.8353    2.1188    0.0024 H   0  0  0  0  0  0  0  0  0  0  0  0
    4.9430    2.9381   -1.2902 H   0  0  0  0  0  0  0  0  0  0  0  0
   -0.2634   -1.7477    0.9275 H   0  0  0  0  0  0  0  0  0  0  0  0
   -2.3859    2.1963    1.0412 H   0  0  0  0  0  0  0  0  0  0  0  0
   -1.6709   -1.7326   -0.5863 H   0  0  0  0  0  0  0  0  0  0  0  0
   -4.7285    1.9854    0.3048 H   0  0  0  0  0  0  0  0  0  0  0  0
   -6.4663    0.4180   -0.4064 H   0  0  0  0  0  0  0  0  0  0  0  0
   -6.0411   -0.9564   -1.3821 H   0  0  0  0  0  0  0  0  0  0  0  0
  1 10  2  0  0  0  0
  2 13  2  0  0  0  0
  3  7  1  0  0  0  0
  3 10  1  0  0  0  0
  3 22  1  0  0  0  0
  4  9  1  0  0  0  0
  4 13  1  0  0  0  0
  4 28  1  0  0  0  0
  5 15  1  0  0  0  0
  5 17  2  0  0  0  0
  6 17  1  0  0  0  0
  6 32  1  0  0  0  0
  6 33  1  0  0  0  0
  7  8  1  0  0  0  0
  7 18  1  0  0  0  0
  7 19  1  0  0  0  0
  8 11  1  0  0  0  0
  8 20  1  0  0  0  0
  8 21  1  0  0  0  0
  9 10  1  0  0  0  0
  9 23  1  0  0  0  0
  9 24  1  0  0  0  0
 11 25  1  0  0  0  0
 11 26  1  0  0  0  0
 11 27  1  0  0  0  0
 12 13  1  0  0  0  0
 12 14  1  0  0  0  0
 12 15  2  0  0  0  0
 14 16  2  0  0  0  0
 14 29  1  0  0  0  0
 15 30  1  0  0  0  0
 16 17  1  0  0  0  0
 16 31  1  0  0  0  0
M  END
>  <PUBCHEM_COMPOUND_CID>
55037403

>  <PUBCHEM_CONFORMER_RMSD>
0.8

>  <PUBCHEM_CONFORMER_DIVERSEORDER>
1
35
91
40
46
9
48
86
82
98
53
93
15
43
19
50
74
6
95
25
52
64
68
94
5
90
55
84
49
73
10
97
59
4
26
44
47
42
80
66
7
78
88
34
13
36
79
18
62
24
81
89
14
96
45
2
76
51
69
11
87
67
71
54
85
57
70
92
41
3
16
21
8
63
39
77
61
65
28
83
32
17
29
12
60
27
56
33
31
37
30
75
58
38
20
72
23
22

>  <PUBCHEM_MMFF94_PARTIAL_CHARGES>
22
1 -0.57
10 0.57
12 0.09
13 0.54
14 -0.15
15 0.16
16 -0.15
17 0.41
2 -0.57
22 0.37
28 0.37
29 0.15
3 -0.73
30 0.15
31 0.15
32 0.4
33 0.4
4 -0.73
5 -0.62
6 -0.9
7 0.3
9 0.36

>  <PUBCHEM_EFFECTIVE_ROTOR_COUNT>
7

>  <PUBCHEM_PHARMACOPHORE_FEATURES>
8
1 1 acceptor
1 11 hydrophobe
1 2 acceptor
1 3 donor
1 4 donor
1 6 donor
3 5 6 17 cation
6 5 12 14 15 16 17 rings

>  <PUBCHEM_HEAVY_ATOM_COUNT>
17

>  <PUBCHEM_ATOM_DEF_STEREO_COUNT>
0

>  <PUBCHEM_ATOM_UDEF_STEREO_COUNT>
0

>  <PUBCHEM_BOND_DEF_STEREO_COUNT>
0

>  <PUBCHEM_BOND_UDEF_STEREO_COUNT>
0

>  <PUBCHEM_ISOTOPIC_ATOM_COUNT>
0

>  <PUBCHEM_COMPONENT_COUNT>
1

>  <PUBCHEM_CACTVS_TAUTO_COUNT>
14

>  <PUBCHEM_CONFORMER_ID>
0347CDDB00000001

>  <PUBCHEM_MMFF94_ENERGY>
36.9281

>  <PUBCHEM_FEATURE_SELFOVERLAP>
40.596

>  <PUBCHEM_SHAPE_FINGERPRINT>
11128504 68 18410857668015730084
11543360 7 18272093798900809978
12616999 72 17988924436149051438
12670546 177 18411419505456629276
12892183 10 10737290181909327838
13533116 47 15574981824585210112
13551218 46 10231766573533913316
13675066 3 13623532350842544978
14211702 104 11023526043990282189
14251718 22 18260546740913615863
14251758 9 11239731750895140747
14251764 18 8934992672909626272
14251764 30 13038924217620538068
14251764 38 16225765203286637932
14252887 29 13542457645103252738
14366163 111 18260829284867639256
14455015 7 14261635027549347212
14528608 73 18410857685369854644
14617045 38 17489870436412762183
15501527 24 18409164437304726479
17834072 33 18413386548943883941
17870717 6 17275108319037322101
17959699 21 18186802456951600164
19784866 34 17676487254664696114
20388580 30 15267347340457079760
20432913 95 12607404382150523102
20645477 56 15430039850614325979
20871999 31 18273215279165024787
212916 134 14490469824603392688
2215653 11 16415191240174186477
2297311 6 17418376891918646881
23175994 123 15482666892815479971
23402539 116 18411133594279959130
23557571 272 17775007838672854504
23559900 14 17845357990338073129
25122255 55 14260773071222506109
2838139 119 18260835947137778572
2916195 48 15936410061046558309
3004659 81 18129381501947903494
328317 168 17894917347309414664
34797466 226 17561086951062665316
351380 180 12973609928031431415
4072396 5 11097850779184455699
42 15 9583516516693065578
4259306 186 15554176882844359428
465052 167 12823293532950496940
474 4 17821736069631325892
543368 44 18335984259048627013
67856867 119 18408878513269535066
7364860 26 17844510288226620665
8509985 295 11746935395489182134

>  <PUBCHEM_SHAPE_MULTIPOLES>
318.19
12.26
1.62
1.15
1.51
0.46
0.03
3.35
-5.14
1.42
0
0.27
-0.09
-1

>  <PUBCHEM_SHAPE_SELFOVERLAP>
643.787

>  <PUBCHEM_SHAPE_VOLUME>
184.2

>  <PUBCHEM_COORDINATE_TYPE>
2
5
10

$$$$
