55036892
 OpenBabel01182520543D

 27 28  0  0  0  0  0  0  0  0999 V2000
   -5.9799    0.0548   -0.0604 F   0  0  0  0  0  0  0  0  0  0  0  0
    0.1969   -1.8829    0.2992 O   0  0  0  0  0  0  0  0  0  0  0  0
   -0.4635    0.3509   -0.0221 N   0  0  0  0  0  0  0  0  0  0  0  0
    4.1760   -0.9058   -0.4150 N   0  0  0  0  0  0  0  0  0  0  0  0
    5.9016    0.7129   -0.1337 N   0  0  0  0  0  0  0  0  0  0  0  0
   -1.8569    0.2760   -0.0320 C   0  0  0  0  0  0  0  0  0  0  0  0
    1.8870   -0.3003    0.0738 C   0  0  0  0  0  0  0  0  0  0  0  0
    0.4552   -0.6950    0.1374 C   0  0  0  0  0  0  0  0  0  0  0  0
   -2.4904   -0.9560    0.1305 C   0  0  0  0  0  0  0  0  0  0  0  0
   -2.6163    1.4334   -0.2043 C   0  0  0  0  0  0  0  0  0  0  0  0
    2.2932    0.9830    0.4226 C   0  0  0  0  0  0  0  0  0  0  0  0
    2.8587   -1.1994   -0.3348 C   0  0  0  0  0  0  0  0  0  0  0  0
   -3.8831   -1.0309    0.1205 C   0  0  0  0  0  0  0  0  0  0  0  0
   -4.0090    1.3586   -0.2144 C   0  0  0  0  0  0  0  0  0  0  0  0
    3.6397    1.3230    0.3530 C   0  0  0  0  0  0  0  0  0  0  0  0
   -4.6424    0.1265   -0.0520 C   0  0  0  0  0  0  0  0  0  0  0  0
    4.5331    0.3512   -0.0681 C   0  0  0  0  0  0  0  0  0  0  0  0
   -0.1005    1.2851   -0.1891 H   0  0  0  0  0  0  0  0  0  0  0  0
   -1.9739   -1.8952    0.2690 H   0  0  0  0  0  0  0  0  0  0  0  0
   -2.1364    2.4005   -0.3318 H   0  0  0  0  0  0  0  0  0  0  0  0
    1.6006    1.7361    0.7851 H   0  0  0  0  0  0  0  0  0  0  0  0
    2.6106   -2.2156   -0.6255 H   0  0  0  0  0  0  0  0  0  0  0  0
   -4.3781   -1.9894    0.2471 H   0  0  0  0  0  0  0  0  0  0  0  0
   -4.6007    2.2594   -0.3483 H   0  0  0  0  0  0  0  0  0  0  0  0
    3.9655    2.3200    0.6312 H   0  0  0  0  0  0  0  0  0  0  0  0
    6.1358    1.6835   -0.3025 H   0  0  0  0  0  0  0  0  0  0  0  0
    6.5500    0.0016   -0.4478 H   0  0  0  0  0  0  0  0  0  0  0  0
  1 16  1  0  0  0  0
  2  8  2  0  0  0  0
  3  6  1  0  0  0  0
  3  8  1  0  0  0  0
  3 18  1  0  0  0  0
  4 12  1  0  0  0  0
  4 17  2  0  0  0  0
  5 17  1  0  0  0  0
  5 26  1  0  0  0  0
  5 27  1  0  0  0  0
  6  9  2  0  0  0  0
  6 10  1  0  0  0  0
  7  8  1  0  0  0  0
  7 11  1  0  0  0  0
  7 12  2  0  0  0  0
  9 13  1  0  0  0  0
  9 19  1  0  0  0  0
 10 14  2  0  0  0  0
 10 20  1  0  0  0  0
 11 15  2  0  0  0  0
 11 21  1  0  0  0  0
 12 22  1  0  0  0  0
 13 16  2  0  0  0  0
 13 23  1  0  0  0  0
 14 16  1  0  0  0  0
 14 24  1  0  0  0  0
 15 17  1  0  0  0  0
 15 25  1  0  0  0  0
M  END
>  <PUBCHEM_COMPOUND_CID>
55036892

>  <PUBCHEM_CONFORMER_RMSD>
0.6

>  <PUBCHEM_CONFORMER_DIVERSEORDER>
2
6
5
1
4
3

>  <PUBCHEM_MMFF94_PARTIAL_CHARGES>
27
1 -0.19
10 -0.15
11 -0.15
12 0.16
13 -0.15
14 -0.15
15 -0.15
16 0.19
17 0.41
18 0.37
19 0.15
2 -0.57
20 0.15
21 0.15
22 0.15
23 0.15
24 0.15
25 0.15
26 0.4
27 0.4
3 -0.55
4 -0.62
5 -0.9
6 0.12
7 0.09
8 0.54
9 -0.15

>  <PUBCHEM_EFFECTIVE_ROTOR_COUNT>
3

>  <PUBCHEM_PHARMACOPHORE_FEATURES>
6
1 2 acceptor
1 3 donor
1 5 donor
3 4 5 17 cation
6 4 7 11 12 15 17 rings
6 6 9 10 13 14 16 rings

>  <PUBCHEM_HEAVY_ATOM_COUNT>
17

>  <PUBCHEM_ATOM_DEF_STEREO_COUNT>
0

>  <PUBCHEM_ATOM_UDEF_STEREO_COUNT>
0

>  <PUBCHEM_BOND_DEF_STEREO_COUNT>
0

>  <PUBCHEM_BOND_UDEF_STEREO_COUNT>
0

>  <PUBCHEM_ISOTOPIC_ATOM_COUNT>
0

>  <PUBCHEM_COMPONENT_COUNT>
1

>  <PUBCHEM_CACTVS_TAUTO_COUNT>
7

>  <PUBCHEM_CONFORMER_ID>
0347CBDC00000002

>  <PUBCHEM_MMFF94_ENERGY>
57.2009

>  <PUBCHEM_FEATURE_SELFOVERLAP>
30.446

>  <PUBCHEM_SHAPE_FINGERPRINT>
11471102 20 18343865507220466314
11615757 297 17632579361584343081
12107183 9 17617657657202639009
12236239 1 14549024281801211562
12403259 415 18411972572543129081
12596602 18 15719680943187147992
12815109 37 9295290542840770544
12916748 109 18408326574984363472
13081056 2 18411698785594418093
14123238 8 17989205945068353206
1420 363 18260555528384925179
14251764 18 18187357741268911602
14341114 176 18410863143919677829
15196674 1 18410573942201940580
17834072 33 18060414733699923511
17834076 25 15936407844869729041
18186145 218 18408881811113146156
200 152 17703790314610326891
20645477 56 18408322198586664651
20645477 70 18059297552645731550
21267235 1 18410301319738207539
21652331 79 18409446981638752901
221357 26 18202282480953434040
22224240 67 13262397804493199848
23402539 116 18411975897063580902
23402655 69 18201719548543372076
23557571 272 18335985285487847213
23559900 14 18412541041544817384
2916195 48 18342449383452017488
3004659 81 18335143043266154158
351380 180 18409728473721252360
3545911 37 18411982468157782732
4028521 119 18261386716072967469
4214541 1 18411700959090521449
42788 4 18410856559639802573
4990 188 18201725033216706694
5104073 3 18262801757409646433
542803 24 16877946035523277437
59755656 520 17748823042330251458
69090 78 18272367598365151222
7495541 125 17060049406352846955
77779 3 18412545401005083965
9709674 26 18411706486534505711

>  <PUBCHEM_SHAPE_MULTIPOLES>
321.77
12.3
1.51
0.64
0.16
0.07
-0.01
-2.26
0.76
-0.02
-0.03
0.08
-0.01
0.45

>  <PUBCHEM_SHAPE_SELFOVERLAP>
694.981

>  <PUBCHEM_SHAPE_VOLUME>
176.6

>  <PUBCHEM_COORDINATE_TYPE>
2
5
10

$$$$
