55043386
 OpenBabel01182520543D

 35 36  0  0  0  0  0  0  0  0999 V2000
   -0.4211   -2.5471    0.5653 O   0  0  0  0  0  0  0  0  0  0  0  0
    3.3234    0.6456   -0.2973 N   0  0  0  0  0  0  0  0  0  0  0  0
    0.8301   -0.7642   -0.2835 N   0  0  0  0  0  0  0  0  0  0  0  0
   -3.1625    0.8520    1.1751 N   0  0  0  0  0  0  0  0  0  0  0  0
   -5.1266    1.5388    0.0144 N   0  0  0  0  0  0  0  0  0  0  0  0
    2.0539    1.3831   -0.2256 C   0  0  0  0  0  0  0  0  0  0  0  0
    3.2035   -0.6512    0.3850 C   0  0  0  0  0  0  0  0  0  0  0  0
    0.9143    0.5825   -0.8595 C   0  0  0  0  0  0  0  0  0  0  0  0
    2.0965   -1.4924   -0.2482 C   0  0  0  0  0  0  0  0  0  0  0  0
    4.4088    1.4337    0.2852 C   0  0  0  0  0  0  0  0  0  0  0  0
   -0.3410   -1.3941    0.1441 C   0  0  0  0  0  0  0  0  0  0  0  0
    5.7397    0.7115    0.1606 C   0  0  0  0  0  0  0  0  0  0  0  0
   -1.5973   -0.6349    0.0871 C   0  0  0  0  0  0  0  0  0  0  0  0
   -2.4006   -0.6622   -1.0475 C   0  0  0  0  0  0  0  0  0  0  0  0
   -2.0191    0.1307    1.1621 C   0  0  0  0  0  0  0  0  0  0  0  0
   -3.5845    0.0670   -1.0721 C   0  0  0  0  0  0  0  0  0  0  0  0
   -3.9174    0.8013    0.0548 C   0  0  0  0  0  0  0  0  0  0  0  0
    1.8002    1.6119    0.8182 H   0  0  0  0  0  0  0  0  0  0  0  0
    2.1430    2.3368   -0.7595 H   0  0  0  0  0  0  0  0  0  0  0  0
    4.1206   -1.2418    0.2980 H   0  0  0  0  0  0  0  0  0  0  0  0
    2.9947   -0.5102    1.4538 H   0  0  0  0  0  0  0  0  0  0  0  0
   -0.0226    1.1319   -0.7444 H   0  0  0  0  0  0  0  0  0  0  0  0
    1.0881    0.4581   -1.9355 H   0  0  0  0  0  0  0  0  0  0  0  0
    2.3512   -1.7475   -1.2843 H   0  0  0  0  0  0  0  0  0  0  0  0
    1.9851   -2.4329    0.3014 H   0  0  0  0  0  0  0  0  0  0  0  0
    4.4915    2.3841   -0.2563 H   0  0  0  0  0  0  0  0  0  0  0  0
    4.2180    1.6757    1.3384 H   0  0  0  0  0  0  0  0  0  0  0  0
    5.8373   -0.1134    0.8728 H   0  0  0  0  0  0  0  0  0  0  0  0
    5.9012    0.3288   -0.8530 H   0  0  0  0  0  0  0  0  0  0  0  0
    6.5555    1.4099    0.3788 H   0  0  0  0  0  0  0  0  0  0  0  0
   -2.1128   -1.2475   -1.9166 H   0  0  0  0  0  0  0  0  0  0  0  0
   -1.4339    0.1918    2.0746 H   0  0  0  0  0  0  0  0  0  0  0  0
   -4.2165    0.0501   -1.9540 H   0  0  0  0  0  0  0  0  0  0  0  0
   -5.3628    2.0788    0.8377 H   0  0  0  0  0  0  0  0  0  0  0  0
   -5.4643    1.8617   -0.8839 H   0  0  0  0  0  0  0  0  0  0  0  0
  1 11  2  0  0  0  0
  2  6  1  0  0  0  0
  2  7  1  0  0  0  0
  2 10  1  0  0  0  0
  3  8  1  0  0  0  0
  3  9  1  0  0  0  0
  3 11  1  0  0  0  0
  4 15  1  0  0  0  0
  4 17  2  0  0  0  0
  5 17  1  0  0  0  0
  5 34  1  0  0  0  0
  5 35  1  0  0  0  0
  6  8  1  0  0  0  0
  6 18  1  0  0  0  0
  6 19  1  0  0  0  0
  7  9  1  0  0  0  0
  7 20  1  0  0  0  0
  7 21  1  0  0  0  0
  8 22  1  0  0  0  0
  8 23  1  0  0  0  0
  9 24  1  0  0  0  0
  9 25  1  0  0  0  0
 10 12  1  0  0  0  0
 10 26  1  0  0  0  0
 10 27  1  0  0  0  0
 11 13  1  0  0  0  0
 12 28  1  0  0  0  0
 12 29  1  0  0  0  0
 12 30  1  0  0  0  0
 13 14  1  0  0  0  0
 13 15  2  0  0  0  0
 14 16  2  0  0  0  0
 14 31  1  0  0  0  0
 15 32  1  0  0  0  0
 16 17  1  0  0  0  0
 16 33  1  0  0  0  0
M  END
>  <PUBCHEM_COMPOUND_CID>
55043386

>  <PUBCHEM_CONFORMER_RMSD>
0.6

>  <PUBCHEM_CONFORMER_DIVERSEORDER>
2
9
32
37
11
24
19
35
30
10
6
29
27
26
21
23
4
36
15
14
18
17
39
20
16
12
25
38
34
33
13
8
28
22
3
31
7
5
1

>  <PUBCHEM_MMFF94_PARTIAL_CHARGES>
21
1 -0.57
10 0.27
11 0.54
13 0.09
14 -0.15
15 0.16
16 -0.15
17 0.41
2 -0.81
3 -0.66
31 0.15
32 0.15
33 0.15
34 0.4
35 0.4
4 -0.62
5 -0.9
6 0.27
7 0.27
8 0.3
9 0.3

>  <PUBCHEM_EFFECTIVE_ROTOR_COUNT>
4.2

>  <PUBCHEM_PHARMACOPHORE_FEATURES>
6
1 1 acceptor
1 2 cation
1 5 donor
3 4 5 17 cation
6 2 3 6 7 8 9 rings
6 4 13 14 15 16 17 rings

>  <PUBCHEM_HEAVY_ATOM_COUNT>
17

>  <PUBCHEM_ATOM_DEF_STEREO_COUNT>
0

>  <PUBCHEM_ATOM_UDEF_STEREO_COUNT>
0

>  <PUBCHEM_BOND_DEF_STEREO_COUNT>
0

>  <PUBCHEM_BOND_UDEF_STEREO_COUNT>
0

>  <PUBCHEM_ISOTOPIC_ATOM_COUNT>
0

>  <PUBCHEM_COMPONENT_COUNT>
1

>  <PUBCHEM_CACTVS_TAUTO_COUNT>
4

>  <PUBCHEM_CONFORMER_ID>
0347E53A00000002

>  <PUBCHEM_MMFF94_ENERGY>
46.611

>  <PUBCHEM_FEATURE_SELFOVERLAP>
30.446

>  <PUBCHEM_SHAPE_FINGERPRINT>
11089746 13 18059568123043160832
11543360 7 16343701071092011964
12236239 1 18131348579630703583
124424 183 16805596001478244244
12500047 106 18339358677603758986
12633257 1 15864363449467067033
13288520 33 8358266951204660920
13583140 156 16732976570057407025
13675066 3 16443057301391274170
14123260 362 18131077051381603489
14350574 20 10592040271768462504
14897335 6 18413108381139593782
15342168 16 18261120694225129309
15653759 3 16225768510384840525
15775835 57 18343302552708450661
18186145 218 18409732828755040559
19784866 170 17675923201405715942
20112054 13 18259706687737730901
20300324 65 17418092152344713461
204376 136 18333733528444298122
20645476 183 17632287999920205455
20871999 31 15051736369982631993
21524375 3 18410856589910620399
21713013 43 12535340178121328281
221490 88 10519401053106459692
23184049 59 18186802461072143382
23402539 116 18273209824240203796
23402655 69 18060136518213182173
23557571 272 17131833226464512455
23559900 14 16702300140172119006
3472631 163 17632302237837492185
351380 180 17632293510468935680
3545911 37 18343024406009582487
4028521 119 18060138738843292441
4325135 7 18342455980859205735
465052 167 8357955802779431065
474 4 18411420609120675937
5104073 3 18042115630820558384
633830 44 18341613659719425791
76465 3 10303545978635294484
83771 10 9079115561682638663

>  <PUBCHEM_SHAPE_MULTIPOLES>
324.06
10.07
1.77
0.98
4.41
0.6
-0.02
-5.81
-0.34
0.13
-0.19
-0.68
-0.02
-0.24

>  <PUBCHEM_SHAPE_SELFOVERLAP>
670.599

>  <PUBCHEM_SHAPE_VOLUME>
184.7

>  <PUBCHEM_COORDINATE_TYPE>
2
5
10

$$$$
