55137276
 OpenBabel01182520543D

 32 32  0  0  0  0  0  0  0  0999 V2000
    4.3691   -1.0445   -0.1750 F   0  0  0  0  0  0  0  0  0  0  0  0
    3.0564    0.5652   -0.8382 F   0  0  0  0  0  0  0  0  0  0  0  0
    2.7523   -0.3607    1.1183 F   0  0  0  0  0  0  0  0  0  0  0  0
    0.2287   -2.0795    1.2686 O   0  0  0  0  0  0  0  0  0  0  0  0
   -0.7023    1.3020   -0.0742 N   0  0  0  0  0  0  0  0  0  0  0  0
    0.8014   -1.1837   -0.7920 N   0  0  0  0  0  0  0  0  0  0  0  0
   -3.0035    0.8814   -0.2168 N   0  0  0  0  0  0  0  0  0  0  0  0
   -0.8751    2.7260   -0.2313 C   0  0  0  0  0  0  0  0  0  0  0  0
    0.4753    3.4344   -0.2553 C   0  0  0  0  0  0  0  0  0  0  0  0
   -1.7507    0.3952   -0.0685 C   0  0  0  0  0  0  0  0  0  0  0  0
   -1.4542   -0.9489    0.0906 C   0  0  0  0  0  0  0  0  0  0  0  0
   -0.0933   -1.4424    0.2515 C   0  0  0  0  0  0  0  0  0  0  0  0
    1.2583    3.2566    1.0382 C   0  0  0  0  0  0  0  0  0  0  0  0
    2.1770   -1.6275   -0.7915 C   0  0  0  0  0  0  0  0  0  0  0  0
   -2.5112   -1.8522    0.0978 C   0  0  0  0  0  0  0  0  0  0  0  0
   -3.8141   -1.3903   -0.0520 C   0  0  0  0  0  0  0  0  0  0  0  0
    3.0912   -0.6047   -0.1654 C   0  0  0  0  0  0  0  0  0  0  0  0
   -4.0051   -0.0264   -0.2046 C   0  0  0  0  0  0  0  0  0  0  0  0
   -1.4851    3.1242    0.5882 H   0  0  0  0  0  0  0  0  0  0  0  0
   -1.3983    2.9373   -1.1714 H   0  0  0  0  0  0  0  0  0  0  0  0
    0.3124    4.5045   -0.4280 H   0  0  0  0  0  0  0  0  0  0  0  0
    1.0792    3.0619   -1.0915 H   0  0  0  0  0  0  0  0  0  0  0  0
    0.2279    0.9353   -0.2420 H   0  0  0  0  0  0  0  0  0  0  0  0
    1.5254    2.2096    1.2105 H   0  0  0  0  0  0  0  0  0  0  0  0
    2.1879    3.8332    0.9955 H   0  0  0  0  0  0  0  0  0  0  0  0
    0.6802    3.6108    1.8976 H   0  0  0  0  0  0  0  0  0  0  0  0
    2.2485   -2.5772   -0.2518 H   0  0  0  0  0  0  0  0  0  0  0  0
    2.4630   -1.8034   -1.8330 H   0  0  0  0  0  0  0  0  0  0  0  0
   -2.3342   -2.9178    0.2180 H   0  0  0  0  0  0  0  0  0  0  0  0
    0.4720   -0.6773   -1.6091 H   0  0  0  0  0  0  0  0  0  0  0  0
   -4.6536   -2.0761   -0.0497 H   0  0  0  0  0  0  0  0  0  0  0  0
   -5.0020    0.3847   -0.3252 H   0  0  0  0  0  0  0  0  0  0  0  0
  1 17  1  0  0  0  0
  2 17  1  0  0  0  0
  3 17  1  0  0  0  0
  4 12  2  0  0  0  0
  5  8  1  0  0  0  0
  5 10  1  0  0  0  0
  5 23  1  0  0  0  0
  6 12  1  0  0  0  0
  6 14  1  0  0  0  0
  6 30  1  0  0  0  0
  7 10  1  0  0  0  0
  7 18  2  0  0  0  0
  8  9  1  0  0  0  0
  8 19  1  0  0  0  0
  8 20  1  0  0  0  0
  9 13  1  0  0  0  0
  9 21  1  0  0  0  0
  9 22  1  0  0  0  0
 10 11  2  0  0  0  0
 11 12  1  0  0  0  0
 11 15  1  0  0  0  0
 13 24  1  0  0  0  0
 13 25  1  0  0  0  0
 13 26  1  0  0  0  0
 14 17  1  0  0  0  0
 14 27  1  0  0  0  0
 14 28  1  0  0  0  0
 15 16  2  0  0  0  0
 15 29  1  0  0  0  0
 16 18  1  0  0  0  0
 16 31  1  0  0  0  0
 18 32  1  0  0  0  0
M  END
>  <PUBCHEM_COMPOUND_CID>
55137276

>  <PUBCHEM_CONFORMER_RMSD>
0.8

>  <PUBCHEM_CONFORMER_DIVERSEORDER>
1
31
36
18
32
21
13
34
37
23
4
33
30
10
17
16
15
8
11
2
14
35
5
28
24
12
25
20
27
6
29
3
22
7
26
9
19

>  <PUBCHEM_MMFF94_PARTIAL_CHARGES>
21
1 -0.34
10 0.41
11 0.09
12 0.54
14 0.3
15 -0.15
16 -0.15
17 1.02
18 0.16
2 -0.34
23 0.4
29 0.15
3 -0.34
30 0.37
31 0.15
32 0.15
4 -0.57
5 -0.87
6 -0.73
7 -0.62
8 0.37

>  <PUBCHEM_EFFECTIVE_ROTOR_COUNT>
7

>  <PUBCHEM_PHARMACOPHORE_FEATURES>
7
1 13 hydrophobe
1 4 acceptor
1 5 cation
1 5 donor
1 6 donor
1 7 acceptor
6 7 10 11 15 16 18 rings

>  <PUBCHEM_HEAVY_ATOM_COUNT>
18

>  <PUBCHEM_ATOM_DEF_STEREO_COUNT>
0

>  <PUBCHEM_ATOM_UDEF_STEREO_COUNT>
0

>  <PUBCHEM_BOND_DEF_STEREO_COUNT>
0

>  <PUBCHEM_BOND_UDEF_STEREO_COUNT>
0

>  <PUBCHEM_ISOTOPIC_ATOM_COUNT>
0

>  <PUBCHEM_COMPONENT_COUNT>
1

>  <PUBCHEM_CACTVS_TAUTO_COUNT>
7

>  <PUBCHEM_CONFORMER_ID>
034953FC00000001

>  <PUBCHEM_MMFF94_ENERGY>
40.6456

>  <PUBCHEM_FEATURE_SELFOVERLAP>
35.522

>  <PUBCHEM_SHAPE_FINGERPRINT>
10498660 4 18336828567824432764
108231 29 18335146413992379899
10989021 7 18340205310120544823
11132069 177 18411696577949475579
11578080 2 17026240518914954903
11680986 33 17975417124801242955
13140716 1 18338521949408086921
138480 1 14519749333751224164
14022349 108 18196100069125896529
14790565 3 17836092169686437321
15006816 218 17979353388881416881
15536298 74 18199186381058775169
16945 1 18342464780772480359
18785283 64 18046359779873711297
19868273 325 18410857637898295919
20510252 161 18194684765463539840
21041028 32 18269290079000227057
21141583 151 18411704244745589284
21339142 51 18408321073421492295
22213442 358 18412826919364361215
2297311 6 18340782446535977358
2334 1 18121497122907603817
23402539 116 18341604897886071062
23419403 2 18118096251479909765
23557571 272 18129386990551493894
23559900 14 18267584607184471966
2748010 2 18191296285797215613
537710 114 18334586749630801037
5939293 188 18339919423959629384
7364860 26 18125722528765669257
81228 2 18195828270509952601
9925002 15 17199084962192963663

>  <PUBCHEM_SHAPE_MULTIPOLES>
327.8
6.2
3.6
0.89
0.06
3.99
0.14
-2.81
-0.52
1.43
0.35
0.4
-0.05
0.52

>  <PUBCHEM_SHAPE_SELFOVERLAP>
670.202

>  <PUBCHEM_SHAPE_VOLUME>
190.3

>  <PUBCHEM_COORDINATE_TYPE>
2
5
10

$$$$
