55136662
 OpenBabel01182520543D

 27 28  0  0  0  0  0  0  0  0999 V2000
   -5.7654   -0.1002   -0.0587 F   0  0  0  0  0  0  0  0  0  0  0  0
    0.4832   -1.4554    1.0156 O   0  0  0  0  0  0  0  0  0  0  0  0
   -0.2700    0.4624   -0.1174 N   0  0  0  0  0  0  0  0  0  0  0  0
    4.3160   -0.4209   -0.6557 N   0  0  0  0  0  0  0  0  0  0  0  0
    2.5910   -2.0139   -0.9832 N   0  0  0  0  0  0  0  0  0  0  0  0
    2.1048    0.0112    0.2212 C   0  0  0  0  0  0  0  0  0  0  0  0
   -1.6581    0.3201   -0.1028 C   0  0  0  0  0  0  0  0  0  0  0  0
    0.6912   -0.4020    0.4232 C   0  0  0  0  0  0  0  0  0  0  0  0
    3.0247   -0.7698   -0.4598 C   0  0  0  0  0  0  0  0  0  0  0  0
   -2.2388   -0.7927    0.5056 C   0  0  0  0  0  0  0  0  0  0  0  0
   -2.4650    1.2908   -0.6965 C   0  0  0  0  0  0  0  0  0  0  0  0
    2.5381    1.2289    0.7341 C   0  0  0  0  0  0  0  0  0  0  0  0
   -3.6263   -0.9350    0.5202 C   0  0  0  0  0  0  0  0  0  0  0  0
   -3.8524    1.1486   -0.6820 C   0  0  0  0  0  0  0  0  0  0  0  0
   -4.4330    0.0357   -0.0737 C   0  0  0  0  0  0  0  0  0  0  0  0
    3.8593    1.6226    0.5529 C   0  0  0  0  0  0  0  0  0  0  0  0
    4.7006    0.7695   -0.1428 C   0  0  0  0  0  0  0  0  0  0  0  0
    0.0750    1.2962   -0.5886 H   0  0  0  0  0  0  0  0  0  0  0  0
   -1.6836   -1.5860    0.9857 H   0  0  0  0  0  0  0  0  0  0  0  0
   -2.0261    2.1633   -1.1740 H   0  0  0  0  0  0  0  0  0  0  0  0
    1.8604    1.8789    1.2813 H   0  0  0  0  0  0  0  0  0  0  0  0
   -4.0802   -1.8007    0.9936 H   0  0  0  0  0  0  0  0  0  0  0  0
   -4.4811    1.9042   -1.1439 H   0  0  0  0  0  0  0  0  0  0  0  0
    4.2195    2.5668    0.9449 H   0  0  0  0  0  0  0  0  0  0  0  0
    5.7404    1.0301   -0.3109 H   0  0  0  0  0  0  0  0  0  0  0  0
    1.8560   -2.5142   -0.4991 H   0  0  0  0  0  0  0  0  0  0  0  0
    3.2840   -2.5616   -1.4790 H   0  0  0  0  0  0  0  0  0  0  0  0
  1 15  1  0  0  0  0
  2  8  2  0  0  0  0
  3  7  1  0  0  0  0
  3  8  1  0  0  0  0
  3 18  1  0  0  0  0
  4  9  1  0  0  0  0
  4 17  2  0  0  0  0
  5  9  1  0  0  0  0
  5 26  1  0  0  0  0
  5 27  1  0  0  0  0
  6  8  1  0  0  0  0
  6  9  2  0  0  0  0
  6 12  1  0  0  0  0
  7 10  2  0  0  0  0
  7 11  1  0  0  0  0
 10 13  1  0  0  0  0
 10 19  1  0  0  0  0
 11 14  2  0  0  0  0
 11 20  1  0  0  0  0
 12 16  2  0  0  0  0
 12 21  1  0  0  0  0
 13 15  2  0  0  0  0
 13 22  1  0  0  0  0
 14 15  1  0  0  0  0
 14 23  1  0  0  0  0
 16 17  1  0  0  0  0
 16 24  1  0  0  0  0
 17 25  1  0  0  0  0
M  END
>  <PUBCHEM_COMPOUND_CID>
55136662

>  <PUBCHEM_CONFORMER_RMSD>
0.6

>  <PUBCHEM_CONFORMER_DIVERSEORDER>
1
2
7
3
6
4
5

>  <PUBCHEM_MMFF94_PARTIAL_CHARGES>
27
1 -0.19
10 -0.15
11 -0.15
12 -0.15
13 -0.15
14 -0.15
15 0.19
16 -0.15
17 0.16
18 0.37
19 0.15
2 -0.57
20 0.15
21 0.15
22 0.15
23 0.15
24 0.15
25 0.15
26 0.4
27 0.4
3 -0.55
4 -0.62
5 -0.9
6 0.09
7 0.12
8 0.54
9 0.41

>  <PUBCHEM_EFFECTIVE_ROTOR_COUNT>
3

>  <PUBCHEM_PHARMACOPHORE_FEATURES>
7
1 2 acceptor
1 3 donor
1 4 acceptor
1 5 cation
1 5 donor
6 4 6 9 12 16 17 rings
6 7 10 11 13 14 15 rings

>  <PUBCHEM_HEAVY_ATOM_COUNT>
17

>  <PUBCHEM_ATOM_DEF_STEREO_COUNT>
0

>  <PUBCHEM_ATOM_UDEF_STEREO_COUNT>
0

>  <PUBCHEM_BOND_DEF_STEREO_COUNT>
0

>  <PUBCHEM_BOND_UDEF_STEREO_COUNT>
0

>  <PUBCHEM_ISOTOPIC_ATOM_COUNT>
0

>  <PUBCHEM_COMPONENT_COUNT>
1

>  <PUBCHEM_CACTVS_TAUTO_COUNT>
7

>  <PUBCHEM_CONFORMER_ID>
0349519600000001

>  <PUBCHEM_MMFF94_ENERGY>
59.8878

>  <PUBCHEM_FEATURE_SELFOVERLAP>
35.521

>  <PUBCHEM_SHAPE_FINGERPRINT>
10498660 4 17968370148378128325
10608611 8 18409163298885354208
11132069 177 17894911840987397877
11287383 113 18342176695403049875
11471102 20 18202003239907895256
11615757 297 17632297886496933977
12236239 1 15985109608578516192
12730499 353 18412552023950532890
128620 24 18260547831349811061
13081056 2 18409165519351843209
15219456 202 18412545409521178526
15375358 24 18335139808137447803
15961568 22 17749392637009790324
17834072 33 17917426562275161191
18186145 218 18411986840703463696
200 152 17632859715426948225
20279233 1 18408890641486902442
20645477 56 18334012804888051769
20645477 70 18059579048949462150
221357 26 18271806795964053409
22289505 5 18342452600071441436
23402539 116 18260541268908866526
23402655 69 18273779354500149796
23557571 272 18113618954358860189
23559900 14 18260829254992843782
3060560 45 18060703897042582238
3268164 11 17749659753862415231
3545911 37 18410576197070307516
4028521 119 18260824878394775925
4047638 21 18410292532303730824
495365 180 17917421077807600928
4990 188 18411703162429661518
5104073 3 18114741521682252817
522135 26 17847061077819380140
5281201 14 18342463603787924204
542803 24 16702025283491929129
69090 78 18342737450612683527
77779 3 18341895177656059741
8272917 22 17703799067490127287
9709674 26 18408890658783173395

>  <PUBCHEM_SHAPE_MULTIPOLES>
321.77
10.82
1.54
0.88
4.21
0.13
-0.01
-1.65
-1
-0.79
-0.08
-0.2
0.08
1.18

>  <PUBCHEM_SHAPE_SELFOVERLAP>
695.65

>  <PUBCHEM_SHAPE_VOLUME>
176.5

>  <PUBCHEM_COORDINATE_TYPE>
2
5
10

$$$$
