55136663
 OpenBabel01182520543D

 27 28  0  0  0  0  0  0  0  0999 V2000
    4.4089   -1.7470   -0.6725 F   0  0  0  0  0  0  0  0  0  0  0  0
   -0.2821   -1.4738   -0.7764 O   0  0  0  0  0  0  0  0  0  0  0  0
    0.3236    0.6143    0.1191 N   0  0  0  0  0  0  0  0  0  0  0  0
   -4.2203   -0.4687    0.6497 N   0  0  0  0  0  0  0  0  0  0  0  0
   -2.4197   -1.9002    1.2234 N   0  0  0  0  0  0  0  0  0  0  0  0
   -2.0094   -0.0187   -0.2189 C   0  0  0  0  0  0  0  0  0  0  0  0
    1.7172    0.5554    0.1584 C   0  0  0  0  0  0  0  0  0  0  0  0
   -0.5689   -0.3681   -0.3299 C   0  0  0  0  0  0  0  0  0  0  0  0
   -2.9054   -0.7610    0.5333 C   0  0  0  0  0  0  0  0  0  0  0  0
    2.3797   -0.5888   -0.2862 C   0  0  0  0  0  0  0  0  0  0  0  0
    2.4479    1.6406    0.6428 C   0  0  0  0  0  0  0  0  0  0  0  0
   -2.4938    1.0956   -0.8952 C   0  0  0  0  0  0  0  0  0  0  0  0
    3.7728   -0.6480   -0.2465 C   0  0  0  0  0  0  0  0  0  0  0  0
    3.8410    1.5812    0.6827 C   0  0  0  0  0  0  0  0  0  0  0  0
    4.5034    0.4371    0.2377 C   0  0  0  0  0  0  0  0  0  0  0  0
   -3.8404    1.4286   -0.7998 C   0  0  0  0  0  0  0  0  0  0  0  0
   -4.6546    0.6215   -0.0216 C   0  0  0  0  0  0  0  0  0  0  0  0
   -0.0834    1.4789    0.4699 H   0  0  0  0  0  0  0  0  0  0  0  0
    1.8866   -1.4688   -0.6739 H   0  0  0  0  0  0  0  0  0  0  0  0
    1.9449    2.5385    0.9925 H   0  0  0  0  0  0  0  0  0  0  0  0
   -1.8363    1.7104   -1.5041 H   0  0  0  0  0  0  0  0  0  0  0  0
    4.4100    2.4259    1.0599 H   0  0  0  0  0  0  0  0  0  0  0  0
    5.5879    0.3907    0.2687 H   0  0  0  0  0  0  0  0  0  0  0  0
   -4.2404    2.2919   -1.3192 H   0  0  0  0  0  0  0  0  0  0  0  0
   -5.7124    0.8381    0.0850 H   0  0  0  0  0  0  0  0  0  0  0  0
   -1.6419   -2.4127    0.8266 H   0  0  0  0  0  0  0  0  0  0  0  0
   -3.0966   -2.4213    1.7676 H   0  0  0  0  0  0  0  0  0  0  0  0
  1 13  1  0  0  0  0
  2  8  2  0  0  0  0
  3  7  1  0  0  0  0
  3  8  1  0  0  0  0
  3 18  1  0  0  0  0
  4  9  1  0  0  0  0
  4 17  2  0  0  0  0
  5  9  1  0  0  0  0
  5 26  1  0  0  0  0
  5 27  1  0  0  0  0
  6  8  1  0  0  0  0
  6  9  2  0  0  0  0
  6 12  1  0  0  0  0
  7 10  2  0  0  0  0
  7 11  1  0  0  0  0
 10 13  1  0  0  0  0
 10 19  1  0  0  0  0
 11 14  2  0  0  0  0
 11 20  1  0  0  0  0
 12 16  2  0  0  0  0
 12 21  1  0  0  0  0
 13 15  2  0  0  0  0
 14 15  1  0  0  0  0
 14 22  1  0  0  0  0
 15 23  1  0  0  0  0
 16 17  1  0  0  0  0
 16 24  1  0  0  0  0
 17 25  1  0  0  0  0
M  END
>  <PUBCHEM_COMPOUND_CID>
55136663

>  <PUBCHEM_CONFORMER_RMSD>
0.6

>  <PUBCHEM_CONFORMER_DIVERSEORDER>
1
12
4
13
10
5
8
2
3
14
11
9
6
7

>  <PUBCHEM_MMFF94_PARTIAL_CHARGES>
27
1 -0.19
10 -0.15
11 -0.15
12 -0.15
13 0.19
14 -0.15
15 -0.15
16 -0.15
17 0.16
18 0.37
19 0.15
2 -0.57
20 0.15
21 0.15
22 0.15
23 0.15
24 0.15
25 0.15
26 0.4
27 0.4
3 -0.55
4 -0.62
5 -0.9
6 0.09
7 0.12
8 0.54
9 0.41

>  <PUBCHEM_EFFECTIVE_ROTOR_COUNT>
3

>  <PUBCHEM_PHARMACOPHORE_FEATURES>
7
1 2 acceptor
1 3 donor
1 4 acceptor
1 5 cation
1 5 donor
6 4 6 9 12 16 17 rings
6 7 10 11 13 14 15 rings

>  <PUBCHEM_HEAVY_ATOM_COUNT>
17

>  <PUBCHEM_ATOM_DEF_STEREO_COUNT>
0

>  <PUBCHEM_ATOM_UDEF_STEREO_COUNT>
0

>  <PUBCHEM_BOND_DEF_STEREO_COUNT>
0

>  <PUBCHEM_BOND_UDEF_STEREO_COUNT>
0

>  <PUBCHEM_ISOTOPIC_ATOM_COUNT>
0

>  <PUBCHEM_COMPONENT_COUNT>
1

>  <PUBCHEM_CACTVS_TAUTO_COUNT>
7

>  <PUBCHEM_CONFORMER_ID>
0349519700000001

>  <PUBCHEM_MMFF94_ENERGY>
59.8766

>  <PUBCHEM_FEATURE_SELFOVERLAP>
35.521

>  <PUBCHEM_SHAPE_FINGERPRINT>
10608611 8 18410006667253576844
11132069 177 18040433308877930629
11405975 8 18408038507343526160
11471102 20 18201998824628760932
12236239 1 16272207475243256661
12251169 10 17894629283853092941
12403259 415 18334574603816956109
12500047 106 18114177527798485723
12507560 40 18409729586049307676
128620 24 8286199452734765128
13081056 2 18411134727750476581
13296908 3 18409165532563480912
13675066 3 18409729590449679048
14866123 147 17190107020777805322
15219456 202 18411136943737044109
15242439 84 18408604725640465460
15375358 24 18411134740408297690
15653759 3 18260267464284829985
17804303 29 18259990374780978077
18186145 218 18259979358021104088
19026448 4 18408040723430638456
19107657 47 17989769994501779912
200 152 17561077008402830957
20279233 1 18410294726377871714
20645477 56 18334289898644991493
20645477 70 18059856134601322230
21065198 57 18409449201978349056
21065199 12 18337110175987191192
21065201 7 17894908525014065816
22854114 59 18341895212005164161
22943178 12 18409445925029052570
23402539 116 18188202196100505167
23402655 69 17988922284338696612
23559900 14 18334295345116865686
26918003 58 18412823594953899912
2838139 119 17202768069445534009
351380 180 18342171163844044125
3545911 37 18341332275116272160
42 15 18334012795986900296
4214541 1 18335138695888611137
5104073 3 18411417323454968579
5281201 14 18408605855412446052
633830 44 18334569140101246559
69090 78 18272645783481146847
77779 3 18408604777069445928
9709674 26 18336828696610381771

>  <PUBCHEM_SHAPE_MULTIPOLES>
321.77
10.18
1.7
0.92
1.04
0.15
-0.04
-1.04
-0.37
0.37
-0.09
-0.28
0.08
1.56

>  <PUBCHEM_SHAPE_SELFOVERLAP>
695.611

>  <PUBCHEM_SHAPE_VOLUME>
176.2

>  <PUBCHEM_COORDINATE_TYPE>
2
5
10

$$$$
