55140555
 OpenBabel01182520543D

 38 39  0  0  0  0  0  0  0  0999 V2000
    1.0734   -2.2153   -1.2292 O   0  0  0  0  0  0  0  0  0  0  0  0
   -3.7696    0.0502    0.1677 N   0  0  0  0  0  0  0  0  0  0  0  0
    0.2181   -1.4803    0.7980 N   0  0  0  0  0  0  0  0  0  0  0  0
    3.0940    1.5844    0.7354 N   0  0  0  0  0  0  0  0  0  0  0  0
    5.3265    2.2487    0.2339 N   0  0  0  0  0  0  0  0  0  0  0  0
   -4.4834    1.0348    0.9803 C   0  0  0  0  0  0  0  0  0  0  0  0
   -3.4368    0.7509   -1.0722 C   0  0  0  0  0  0  0  0  0  0  0  0
   -5.3973    1.7129   -0.0298 C   0  0  0  0  0  0  0  0  0  0  0  0
   -4.7113    1.5232   -1.3792 C   0  0  0  0  0  0  0  0  0  0  0  0
   -2.5919   -0.4772    0.8410 C   0  0  0  0  0  0  0  0  0  0  0  0
   -2.1507   -1.7873    0.1864 C   0  0  0  0  0  0  0  0  0  0  0  0
   -0.9058   -2.3750    0.8447 C   0  0  0  0  0  0  0  0  0  0  0  0
    1.1295   -1.4740   -0.2516 C   0  0  0  0  0  0  0  0  0  0  0  0
    2.2512   -0.5065   -0.1377 C   0  0  0  0  0  0  0  0  0  0  0  0
    3.4712   -0.7468   -0.7602 C   0  0  0  0  0  0  0  0  0  0  0  0
    2.1148    0.6633    0.5919 C   0  0  0  0  0  0  0  0  0  0  0  0
    4.5028    0.1773   -0.6356 C   0  0  0  0  0  0  0  0  0  0  0  0
    4.2655    1.3167    0.1163 C   0  0  0  0  0  0  0  0  0  0  0  0
   -5.0542    0.5685    1.7895 H   0  0  0  0  0  0  0  0  0  0  0  0
   -3.7978    1.7735    1.4154 H   0  0  0  0  0  0  0  0  0  0  0  0
   -2.6052    1.4543   -0.9364 H   0  0  0  0  0  0  0  0  0  0  0  0
   -3.1858    0.0683   -1.8898 H   0  0  0  0  0  0  0  0  0  0  0  0
   -5.5407    2.7721    0.2067 H   0  0  0  0  0  0  0  0  0  0  0  0
   -6.3839    1.2351   -0.0451 H   0  0  0  0  0  0  0  0  0  0  0  0
   -5.3631    0.9495   -2.0486 H   0  0  0  0  0  0  0  0  0  0  0  0
   -4.4941    2.4814   -1.8619 H   0  0  0  0  0  0  0  0  0  0  0  0
   -2.8388   -0.7023    1.8871 H   0  0  0  0  0  0  0  0  0  0  0  0
   -1.7807    0.2607    0.8634 H   0  0  0  0  0  0  0  0  0  0  0  0
   -1.9376   -1.6255   -0.8773 H   0  0  0  0  0  0  0  0  0  0  0  0
   -2.9624   -2.5234    0.2422 H   0  0  0  0  0  0  0  0  0  0  0  0
   -0.6384   -3.3164    0.3522 H   0  0  0  0  0  0  0  0  0  0  0  0
   -1.1027   -2.5950    1.8995 H   0  0  0  0  0  0  0  0  0  0  0  0
    0.3547   -0.8763    1.6014 H   0  0  0  0  0  0  0  0  0  0  0  0
    3.6367   -1.6492   -1.3423 H   0  0  0  0  0  0  0  0  0  0  0  0
    1.1895    0.9426    1.0847 H   0  0  0  0  0  0  0  0  0  0  0  0
    5.4577   -0.0036   -1.1183 H   0  0  0  0  0  0  0  0  0  0  0  0
    5.1508    3.0768    0.7894 H   0  0  0  0  0  0  0  0  0  0  0  0
    6.2775    1.9067    0.1704 H   0  0  0  0  0  0  0  0  0  0  0  0
  1 13  2  0  0  0  0
  2  6  1  0  0  0  0
  2  7  1  0  0  0  0
  2 10  1  0  0  0  0
  3 12  1  0  0  0  0
  3 13  1  0  0  0  0
  3 33  1  0  0  0  0
  4 16  1  0  0  0  0
  4 18  2  0  0  0  0
  5 18  1  0  0  0  0
  5 37  1  0  0  0  0
  5 38  1  0  0  0  0
  6  8  1  0  0  0  0
  6 19  1  0  0  0  0
  6 20  1  0  0  0  0
  7  9  1  0  0  0  0
  7 21  1  0  0  0  0
  7 22  1  0  0  0  0
  8  9  1  0  0  0  0
  8 23  1  0  0  0  0
  8 24  1  0  0  0  0
  9 25  1  0  0  0  0
  9 26  1  0  0  0  0
 10 11  1  0  0  0  0
 10 27  1  0  0  0  0
 10 28  1  0  0  0  0
 11 12  1  0  0  0  0
 11 29  1  0  0  0  0
 11 30  1  0  0  0  0
 12 31  1  0  0  0  0
 12 32  1  0  0  0  0
 13 14  1  0  0  0  0
 14 15  1  0  0  0  0
 14 16  2  0  0  0  0
 15 17  2  0  0  0  0
 15 34  1  0  0  0  0
 16 35  1  0  0  0  0
 17 18  1  0  0  0  0
 17 36  1  0  0  0  0
M  END
>  <PUBCHEM_COMPOUND_CID>
55140555

>  <PUBCHEM_CONFORMER_RMSD>
0.8

>  <PUBCHEM_CONFORMER_DIVERSEORDER>
1
21
9
65
20
69
34
42
64
30
58
78
61
11
28
35
59
23
32
54
70
56
68
22
63
39
29
19
25
52
41
7
71
74
57
44
77
36
49
31
37
47
51
6
73
62
18
45
50
14
75
55
67
2
72
27
38
5
33
16
48
46
43
66
12
76
26
13
24
8
53
60
17
4
10
40
3
15

>  <PUBCHEM_MMFF94_PARTIAL_CHARGES>
21
1 -0.57
10 0.27
12 0.3
13 0.54
14 0.09
15 -0.15
16 0.16
17 -0.15
18 0.41
2 -0.81
3 -0.73
33 0.37
34 0.15
35 0.15
36 0.15
37 0.4
38 0.4
4 -0.62
5 -0.9
6 0.27
7 0.27

>  <PUBCHEM_EFFECTIVE_ROTOR_COUNT>
7

>  <PUBCHEM_PHARMACOPHORE_FEATURES>
7
1 1 acceptor
1 2 cation
1 3 donor
1 5 donor
3 4 5 18 cation
5 2 6 7 8 9 rings
6 4 14 15 16 17 18 rings

>  <PUBCHEM_HEAVY_ATOM_COUNT>
18

>  <PUBCHEM_ATOM_DEF_STEREO_COUNT>
0

>  <PUBCHEM_ATOM_UDEF_STEREO_COUNT>
0

>  <PUBCHEM_BOND_DEF_STEREO_COUNT>
0

>  <PUBCHEM_BOND_UDEF_STEREO_COUNT>
0

>  <PUBCHEM_ISOTOPIC_ATOM_COUNT>
0

>  <PUBCHEM_COMPONENT_COUNT>
1

>  <PUBCHEM_CACTVS_TAUTO_COUNT>
7

>  <PUBCHEM_CONFORMER_ID>
034960CB00000001

>  <PUBCHEM_MMFF94_ENERGY>
37.3135

>  <PUBCHEM_FEATURE_SELFOVERLAP>
35.521

>  <PUBCHEM_SHAPE_FINGERPRINT>
10498660 4 18335136462880118073
12363563 72 10952044585201243763
12403259 415 18337966652495679554
12596602 18 14924238135059652509
12730499 353 18339934731608298227
12769317 202 18341044129807158353
13103583 49 13262679197311221933
13402501 40 18407758131863248861
14123255 352 18335419084122440893
14123255 52 18334010571399764299
1420 369 9583514326365330521
14251764 30 12541244508592119920
14251764 38 18193838364811931421
14848178 96 18412261735537348560
15342816 4 12751241367983398150
17834072 32 18408041831437411181
17870717 6 13183020705593052001
1798214 55 18260547788637475847
193927 3 11239993477796840311
20281475 54 9295291663679938123
20374829 77 11095884843936004119
20388580 30 12247388021113262251
20621476 91 16951434121040252681
20645477 56 18336559282244905179
20645477 70 17703244970150417070
21054139 6 12823308896818869204
21401589 2 18333736840349042921
22182937 141 18337398227012720651
231179 274 18335423452146534978
23227448 37 18338236067742007575
23402655 69 18060421330701111716
23403322 49 10952050044241736045
23559900 14 18343306942629660066
270888 7 18408884031796335193
2838139 119 18411694370346880557
2916195 48 18407762542904782081
314194 84 8214133045365949656
316301 35 9943533985938352524
4028521 119 18412265034304028627
5104073 3 18187085044140244443
59682541 35 18187378653617676713
7808743 9 18187085104211562012

>  <PUBCHEM_SHAPE_MULTIPOLES>
344.64
12.36
2.5
1.12
2.97
0.55
-0.17
-10.39
-1.02
-0.33
0.13
0.62
-0.01
1.35

>  <PUBCHEM_SHAPE_SELFOVERLAP>
708.088

>  <PUBCHEM_SHAPE_VOLUME>
198.6

>  <PUBCHEM_COORDINATE_TYPE>
2
5
10

$$$$
