55174569
 OpenBabel01182520543D

 32 32  0  0  0  0  0  0  0  0999 V2000
    4.7406    1.6417    1.1654 F   0  0  0  0  0  0  0  0  0  0  0  0
    4.3518    1.6380   -0.9800 F   0  0  0  0  0  0  0  0  0  0  0  0
    2.6880    1.5513    0.4236 F   0  0  0  0  0  0  0  0  0  0  0  0
    1.1950   -2.4753    0.5890 O   0  0  0  0  0  0  0  0  0  0  0  0
    1.7773   -0.6869   -0.7691 N   0  0  0  0  0  0  0  0  0  0  0  0
   -4.4832    0.2251    0.0831 N   0  0  0  0  0  0  0  0  0  0  0  0
   -2.8661   -1.5177    0.2392 N   0  0  0  0  0  0  0  0  0  0  0  0
    3.1673   -1.0220   -0.9083 C   0  0  0  0  0  0  0  0  0  0  0  0
    4.0326   -0.3897    0.1756 C   0  0  0  0  0  0  0  0  0  0  0  0
   -0.5193   -0.9866    0.0031 C   0  0  0  0  0  0  0  0  0  0  0  0
    0.8909   -1.4529   -0.0201 C   0  0  0  0  0  0  0  0  0  0  0  0
    3.9482    1.1231    0.2032 C   0  0  0  0  0  0  0  0  0  0  0  0
   -3.1332   -0.2048    0.0584 C   0  0  0  0  0  0  0  0  0  0  0  0
   -0.8338    0.3555   -0.1790 C   0  0  0  0  0  0  0  0  0  0  0  0
   -2.1634    0.7621   -0.1520 C   0  0  0  0  0  0  0  0  0  0  0  0
   -4.8604    1.5890   -0.0979 C   0  0  0  0  0  0  0  0  0  0  0  0
   -1.5626   -1.8754    0.2067 C   0  0  0  0  0  0  0  0  0  0  0  0
   -6.3699    1.7254   -0.0409 C   0  0  0  0  0  0  0  0  0  0  0  0
    3.2805   -2.1113   -0.8812 H   0  0  0  0  0  0  0  0  0  0  0  0
    3.4868   -0.6785   -1.8981 H   0  0  0  0  0  0  0  0  0  0  0  0
    3.7319   -0.7749    1.1571 H   0  0  0  0  0  0  0  0  0  0  0  0
    5.0755   -0.6880    0.0203 H   0  0  0  0  0  0  0  0  0  0  0  0
    1.4481    0.1195   -1.2889 H   0  0  0  0  0  0  0  0  0  0  0  0
   -0.0711    1.1160   -0.3161 H   0  0  0  0  0  0  0  0  0  0  0  0
   -4.4302    2.2215    0.6875 H   0  0  0  0  0  0  0  0  0  0  0  0
   -4.5238    1.9630   -1.0721 H   0  0  0  0  0  0  0  0  0  0  0  0
   -2.3729    1.8162   -0.2902 H   0  0  0  0  0  0  0  0  0  0  0  0
   -5.1822   -0.4921    0.2390 H   0  0  0  0  0  0  0  0  0  0  0  0
   -1.3873   -2.9370    0.3516 H   0  0  0  0  0  0  0  0  0  0  0  0
   -6.8494    1.1277   -0.8237 H   0  0  0  0  0  0  0  0  0  0  0  0
   -6.7599    1.3859    0.9247 H   0  0  0  0  0  0  0  0  0  0  0  0
   -6.6653    2.7700   -0.1800 H   0  0  0  0  0  0  0  0  0  0  0  0
  1 12  1  0  0  0  0
  2 12  1  0  0  0  0
  3 12  1  0  0  0  0
  4 11  2  0  0  0  0
  5  8  1  0  0  0  0
  5 11  1  0  0  0  0
  5 23  1  0  0  0  0
  6 13  1  0  0  0  0
  6 16  1  0  0  0  0
  6 28  1  0  0  0  0
  7 13  2  0  0  0  0
  7 17  1  0  0  0  0
  8  9  1  0  0  0  0
  8 19  1  0  0  0  0
  8 20  1  0  0  0  0
  9 12  1  0  0  0  0
  9 21  1  0  0  0  0
  9 22  1  0  0  0  0
 10 11  1  0  0  0  0
 10 14  1  0  0  0  0
 10 17  2  0  0  0  0
 13 15  1  0  0  0  0
 14 15  2  0  0  0  0
 14 24  1  0  0  0  0
 15 27  1  0  0  0  0
 16 18  1  0  0  0  0
 16 25  1  0  0  0  0
 16 26  1  0  0  0  0
 17 29  1  0  0  0  0
 18 30  1  0  0  0  0
 18 31  1  0  0  0  0
 18 32  1  0  0  0  0
M  END
>  <PUBCHEM_COMPOUND_CID>
55174569

>  <PUBCHEM_CONFORMER_RMSD>
0.8

>  <PUBCHEM_CONFORMER_DIVERSEORDER>
1
5
33
29
21
16
35
2
19
34
4
25
10
37
13
28
26
31
36
22
8
18
39
30
32
7
40
6
27
38
15
3
20
12
9
17
24
11
14
23

>  <PUBCHEM_MMFF94_PARTIAL_CHARGES>
21
1 -0.34
10 0.09
11 0.54
12 1.02
13 0.41
14 -0.15
15 -0.15
16 0.37
17 0.16
2 -0.34
23 0.37
24 0.15
27 0.15
28 0.4
29 0.15
3 -0.34
4 -0.57
5 -0.73
6 -0.87
7 -0.62
8 0.3

>  <PUBCHEM_EFFECTIVE_ROTOR_COUNT>
7

>  <PUBCHEM_PHARMACOPHORE_FEATURES>
5
1 4 acceptor
1 5 donor
1 6 donor
3 6 7 13 cation
6 7 10 13 14 15 17 rings

>  <PUBCHEM_HEAVY_ATOM_COUNT>
18

>  <PUBCHEM_ATOM_DEF_STEREO_COUNT>
0

>  <PUBCHEM_ATOM_UDEF_STEREO_COUNT>
0

>  <PUBCHEM_BOND_DEF_STEREO_COUNT>
0

>  <PUBCHEM_BOND_UDEF_STEREO_COUNT>
0

>  <PUBCHEM_ISOTOPIC_ATOM_COUNT>
0

>  <PUBCHEM_COMPONENT_COUNT>
1

>  <PUBCHEM_CACTVS_TAUTO_COUNT>
7

>  <PUBCHEM_CONFORMER_ID>
0349E5A900000001

>  <PUBCHEM_MMFF94_ENERGY>
39.1169

>  <PUBCHEM_FEATURE_SELFOVERLAP>
25.372

>  <PUBCHEM_SHAPE_FINGERPRINT>
10014705 185 18411419510273744943
11089746 13 18340482275123359383
11132069 177 18260550047389554919
11595378 159 16516239631321228381
122479 349 18408605893835029810
12596602 18 14851901243794062157
12969540 114 18336250259785210725
13533116 47 17459748129531486795
13955234 65 18119813513002958819
1420 369 8790879688241761437
14251732 16 18411140247627165459
14528608 73 18272084990012543949
15196674 1 18410575110480517886
17834072 33 17917705808358933237
17959699 21 18342177730812168489
18186145 218 18201174212356742366
193927 3 10663810910646400821
20281475 54 9439404648432244303
20645477 56 18261679181923762175
212847 35 18408325475894663940
21304253 335 18262809462813493037
21452121 103 18336260133145117763
21618674 25 18335701620246438547
23227448 37 18412824720256404575
23402655 69 18131350808259794356
23557571 272 18198358422764497382
23559900 14 18200312113525781446
2916195 48 18410011010267197497
293599 30 18410014295837843317
335352 9 18338235968915886694
34797466 226 16845296093919405077
34934 24 18410571773760485871
351380 180 18413668007067805342
4340502 62 17167870725461595939
465052 167 8069736421205797025
474 4 18334019405857322276
5104073 3 18187932725367567859
59682541 52 17131286688071993540
633830 44 18409164433110350070
7364860 26 18266178327517721750

>  <PUBCHEM_SHAPE_MULTIPOLES>
327.8
11.92
2.25
0.79
7.48
0.23
-0.03
-9.01
0.21
-0.58
0.27
-0.66
-0.08
0.55

>  <PUBCHEM_SHAPE_SELFOVERLAP>
669.533

>  <PUBCHEM_SHAPE_VOLUME>
189.9

>  <PUBCHEM_COORDINATE_TYPE>
2
5
10

$$$$
