56744367
 OpenBabel01182520543D

 36 36  0  0  0  0  0  0  0  0999 V2000
    3.6908    1.1948    0.8901 O   0  0  0  0  0  0  0  0  0  0  0  0
   -0.9790   -3.1279   -0.6144 O   0  0  0  0  0  0  0  0  0  0  0  0
    0.9247   -1.9985    0.1960 N   0  0  0  0  0  0  0  0  0  0  0  0
   -2.1401    1.0925   -1.1306 N   0  0  0  0  0  0  0  0  0  0  0  0
   -3.6143    2.5047    0.0979 N   0  0  0  0  0  0  0  0  0  0  0  0
    2.6173    1.4432   -0.0201 C   0  0  0  0  0  0  0  0  0  0  0  0
    2.0319    0.0874   -0.4607 C   0  0  0  0  0  0  0  0  0  0  0  0
    1.4721   -0.7600    0.6819 C   0  0  0  0  0  0  0  0  0  0  0  0
    1.5816    2.3248    0.6813 C   0  0  0  0  0  0  0  0  0  0  0  0
    3.1915    2.1764   -1.2366 C   0  0  0  0  0  0  0  0  0  0  0  0
   -0.4286   -2.1127   -0.1895 C   0  0  0  0  0  0  0  0  0  0  0  0
    1.8470   -3.1359    0.1223 C   0  0  0  0  0  0  0  0  0  0  0  0
   -1.2695   -0.9090   -0.0908 C   0  0  0  0  0  0  0  0  0  0  0  0
   -1.9722   -0.6186    1.0735 C   0  0  0  0  0  0  0  0  0  0  0  0
   -1.3860   -0.0294   -1.1550 C   0  0  0  0  0  0  0  0  0  0  0  0
   -2.7587    0.5263    1.1369 C   0  0  0  0  0  0  0  0  0  0  0  0
   -2.8086    1.3418    0.0178 C   0  0  0  0  0  0  0  0  0  0  0  0
    2.8285   -0.4924   -0.9471 H   0  0  0  0  0  0  0  0  0  0  0  0
    1.2742    0.2551   -1.2306 H   0  0  0  0  0  0  0  0  0  0  0  0
    0.7165   -0.2061    1.2412 H   0  0  0  0  0  0  0  0  0  0  0  0
    2.2641   -0.9927    1.4041 H   0  0  0  0  0  0  0  0  0  0  0  0
    0.6890    2.4664    0.0636 H   0  0  0  0  0  0  0  0  0  0  0  0
    2.0019    3.3126    0.9046 H   0  0  0  0  0  0  0  0  0  0  0  0
    1.2823    1.9066    1.6477 H   0  0  0  0  0  0  0  0  0  0  0  0
    3.6611    3.1214   -0.9400 H   0  0  0  0  0  0  0  0  0  0  0  0
    2.4166    2.3936   -1.9790 H   0  0  0  0  0  0  0  0  0  0  0  0
    3.9764    1.5805   -1.7162 H   0  0  0  0  0  0  0  0  0  0  0  0
    4.0597    2.0527    1.1615 H   0  0  0  0  0  0  0  0  0  0  0  0
    2.6851   -2.8769   -0.5299 H   0  0  0  0  0  0  0  0  0  0  0  0
    1.3396   -4.0173   -0.2782 H   0  0  0  0  0  0  0  0  0  0  0  0
    2.2122   -3.3597    1.1286 H   0  0  0  0  0  0  0  0  0  0  0  0
   -1.9129   -1.2774    1.9356 H   0  0  0  0  0  0  0  0  0  0  0  0
   -0.8742   -0.2087   -2.0955 H   0  0  0  0  0  0  0  0  0  0  0  0
   -3.3091    0.7597    2.0425 H   0  0  0  0  0  0  0  0  0  0  0  0
   -3.6525    3.0944   -0.7242 H   0  0  0  0  0  0  0  0  0  0  0  0
   -4.4142    2.4948    0.7186 H   0  0  0  0  0  0  0  0  0  0  0  0
  1  6  1  0  0  0  0
  1 28  1  0  0  0  0
  2 11  2  0  0  0  0
  3  8  1  0  0  0  0
  3 11  1  0  0  0  0
  3 12  1  0  0  0  0
  4 15  1  0  0  0  0
  4 17  2  0  0  0  0
  5 17  1  0  0  0  0
  5 35  1  0  0  0  0
  5 36  1  0  0  0  0
  6  7  1  0  0  0  0
  6  9  1  0  0  0  0
  6 10  1  0  0  0  0
  7  8  1  0  0  0  0
  7 18  1  0  0  0  0
  7 19  1  0  0  0  0
  8 20  1  0  0  0  0
  8 21  1  0  0  0  0
  9 22  1  0  0  0  0
  9 23  1  0  0  0  0
  9 24  1  0  0  0  0
 10 25  1  0  0  0  0
 10 26  1  0  0  0  0
 10 27  1  0  0  0  0
 11 13  1  0  0  0  0
 12 29  1  0  0  0  0
 12 30  1  0  0  0  0
 12 31  1  0  0  0  0
 13 14  1  0  0  0  0
 13 15  2  0  0  0  0
 14 16  2  0  0  0  0
 14 32  1  0  0  0  0
 15 33  1  0  0  0  0
 16 17  1  0  0  0  0
 16 34  1  0  0  0  0
M  END
>  <PUBCHEM_COMPOUND_CID>
56744367

>  <PUBCHEM_CONFORMER_RMSD>
0.6

>  <PUBCHEM_CONFORMER_DIVERSEORDER>
7
24
21
23
81
179
85
20
30
111
119
35
133
176
131
103
12
153
73
104
82
46
89
144
13
34
75
42
107
140
45
70
40
60
47
158
132
33
170
83
37
127
124
97
134
130
105
187
142
76
146
79
169
48
27
72
32
39
120
8
68
9
188
65
26
74
162
57
53
135
109
14
43
84
159
122
22
63
173
71
69
175
154
102
28
29
16
90
49
62
94
166
96
167
98
129
139
66
80
88
178
171
41
36
52
101
177
164
11
56
149
121
19
180
112
44
118
126
190
150
128
67
168
59
145
183
113
123
5
156
64
54
100
10
115
25
78
174
31
51
87
2
136
50
148
55
141
106
186
155
185
15
181
1
182
99
165
110
4
116
3
163
77
6
92
172
137
147
138
143
184
108
191
91
117
125
152
61
93
160
151
157
161
114
38
189
58
86
17
95
18

>  <PUBCHEM_MMFF94_PARTIAL_CHARGES>
20
1 -0.68
11 0.54
12 0.3
13 0.09
14 -0.15
15 0.16
16 -0.15
17 0.41
2 -0.57
28 0.4
3 -0.66
32 0.15
33 0.15
34 0.15
35 0.4
36 0.4
4 -0.62
5 -0.9
6 0.28
8 0.3

>  <PUBCHEM_EFFECTIVE_ROTOR_COUNT>
5

>  <PUBCHEM_PHARMACOPHORE_FEATURES>
7
1 1 acceptor
1 1 donor
1 2 acceptor
1 5 donor
3 4 5 17 cation
3 6 9 10 hydrophobe
6 4 13 14 15 16 17 rings

>  <PUBCHEM_HEAVY_ATOM_COUNT>
17

>  <PUBCHEM_ATOM_DEF_STEREO_COUNT>
0

>  <PUBCHEM_ATOM_UDEF_STEREO_COUNT>
0

>  <PUBCHEM_BOND_DEF_STEREO_COUNT>
0

>  <PUBCHEM_BOND_UDEF_STEREO_COUNT>
0

>  <PUBCHEM_ISOTOPIC_ATOM_COUNT>
0

>  <PUBCHEM_COMPONENT_COUNT>
1

>  <PUBCHEM_CACTVS_TAUTO_COUNT>
4

>  <PUBCHEM_CONFORMER_ID>
0361D9AF00000007

>  <PUBCHEM_MMFF94_ENERGY>
55.9755

>  <PUBCHEM_FEATURE_SELFOVERLAP>
35.521

>  <PUBCHEM_SHAPE_FINGERPRINT>
12173636 292 18194967563279907772
12507560 18 17029389254055942731
128993 33 18189622803061229740
13618510 140 18411139121270113121
14026960 21 18336273362166388537
14386348 128 18338811120549577224
14614273 12 18264196092440640175
14648413 74 18191311481069768667
15775835 57 18263086681071255464
16945 1 18268431428315509923
17357990 137 17416132668036777795
18219364 16 18408038524281074625
18785283 64 18191039905966139113
18981168 100 18343018921426100970
20510252 161 17836363022901952602
20671657 1 18339922619478425726
21041028 32 17546447773781766542
21130352 189 17977380530024118370
21524375 3 18338800116827586186
21639500 275 18194386819693522205
23175994 123 17760655762966436167
23402539 116 17551223399859269118
23419403 2 17177491430460897354
23557571 272 17188693585769022828
23558518 356 18335696152648121331
238 59 17755825720249718341
2748010 2 18335425621126060063
305870 269 18410571790818879898
31174 14 18044669602678545059
350125 39 18410862083084445938
474 4 18194958544339124945
7364860 26 18267866086223521338
81228 2 17475236176959380082

>  <PUBCHEM_SHAPE_MULTIPOLES>
323.17
5.48
3.59
1.12
0.74
1.9
0.06
-4.66
-0.33
0.76
0.27
-0.06
-0.28
-0.28

>  <PUBCHEM_SHAPE_SELFOVERLAP>
655.065

>  <PUBCHEM_SHAPE_VOLUME>
189.1

>  <PUBCHEM_COORDINATE_TYPE>
2
5
10

$$$$
