57012646
 OpenBabel01182520543D

 18 18  0  0  0  0  0  0  0  0999 V2000
   -4.1617    0.7615    0.2570 S   0  0  0  0  0  0  0  0  0  0  0  0
   -2.2082   -1.4392   -0.4117 O   0  0  0  0  0  0  0  0  0  0  0  0
    1.6695    1.2555   -0.2122 N   0  0  0  0  0  0  0  0  0  0  0  0
   -2.4687    0.7844    0.2234 N   0  0  0  0  0  0  0  0  0  0  0  0
    3.8485    0.3368    0.0792 N   0  0  0  0  0  0  0  0  0  0  0  0
   -0.2614   -0.1905   -0.0518 C   0  0  0  0  0  0  0  0  0  0  0  0
    0.5660   -1.2802    0.1960 C   0  0  0  0  0  0  0  0  0  0  0  0
    1.9445   -1.1035    0.2401 C   0  0  0  0  0  0  0  0  0  0  0  0
    0.3345    1.0449   -0.2475 C   0  0  0  0  0  0  0  0  0  0  0  0
    2.4418    0.1729    0.0312 C   0  0  0  0  0  0  0  0  0  0  0  0
   -1.7049   -0.3427   -0.1038 C   0  0  0  0  0  0  0  0  0  0  0  0
    0.1552   -2.2726    0.3610 H   0  0  0  0  0  0  0  0  0  0  0  0
    2.5965   -1.9492    0.4333 H   0  0  0  0  0  0  0  0  0  0  0  0
   -0.2323    1.9418   -0.4743 H   0  0  0  0  0  0  0  0  0  0  0  0
   -2.0273    1.6488    0.5197 H   0  0  0  0  0  0  0  0  0  0  0  0
    4.3884   -0.2990    0.6533 H   0  0  0  0  0  0  0  0  0  0  0  0
    4.2071    1.2722   -0.0678 H   0  0  0  0  0  0  0  0  0  0  0  0
   -4.3161    0.6544    1.5848 H   0  0  0  0  0  0  0  0  0  0  0  0
  1  4  1  0  0  0  0
  1 18  1  0  0  0  0
  2 11  2  0  0  0  0
  3  9  1  0  0  0  0
  3 10  2  0  0  0  0
  4 11  1  0  0  0  0
  4 15  1  0  0  0  0
  5 10  1  0  0  0  0
  5 16  1  0  0  0  0
  5 17  1  0  0  0  0
  6  7  1  0  0  0  0
  6  9  2  0  0  0  0
  6 11  1  0  0  0  0
  7  8  2  0  0  0  0
  7 12  1  0  0  0  0
  8 10  1  0  0  0  0
  8 13  1  0  0  0  0
  9 14  1  0  0  0  0
M  END
>  <PUBCHEM_COMPOUND_CID>
57012646

>  <PUBCHEM_CONFORMER_RMSD>
0.4

>  <PUBCHEM_CONFORMER_DIVERSEORDER>
1
8
16
6
13
4
7
15
2
5
14
10
12
3
9
11

>  <PUBCHEM_MMFF94_PARTIAL_CHARGES>
18
1 -0.17
10 0.41
11 0.54
12 0.15
13 0.15
14 0.15
15 0.37
16 0.4
17 0.4
18 0.18
2 -0.57
3 -0.62
4 -0.44
5 -0.9
6 0.09
7 -0.15
8 -0.15
9 0.16

>  <PUBCHEM_EFFECTIVE_ROTOR_COUNT>
2

>  <PUBCHEM_PHARMACOPHORE_FEATURES>
5
1 2 acceptor
1 4 donor
1 5 donor
3 3 5 10 cation
6 3 6 7 8 9 10 rings

>  <PUBCHEM_HEAVY_ATOM_COUNT>
11

>  <PUBCHEM_ATOM_DEF_STEREO_COUNT>
0

>  <PUBCHEM_ATOM_UDEF_STEREO_COUNT>
0

>  <PUBCHEM_BOND_DEF_STEREO_COUNT>
0

>  <PUBCHEM_BOND_UDEF_STEREO_COUNT>
0

>  <PUBCHEM_ISOTOPIC_ATOM_COUNT>
0

>  <PUBCHEM_COMPONENT_COUNT>
1

>  <PUBCHEM_CACTVS_TAUTO_COUNT>
7

>  <PUBCHEM_CONFORMER_ID>
0365F1A600000001

>  <PUBCHEM_MMFF94_ENERGY>
35.6305

>  <PUBCHEM_FEATURE_SELFOVERLAP>
25.372

>  <PUBCHEM_SHAPE_FINGERPRINT>
10219947 1 18334297535006893641
10980938 120 18335703784751407771
11062470 55 17203608177057183137
11471102 20 18335979779339318741
12932764 1 17385994074898218767
13380535 76 18411700980697382679
14144814 61 18411700942042332841
14325111 11 18410574032580798676
14897335 6 18413103953233806039
15775835 57 18411703188051778641
16945 1 18335975398367162260
17844478 74 17530969038465566837
20645477 70 18263637364935975415
20871998 22 17979354153696968330
21040471 1 18264489670930167638
23235685 24 18408036316773080776
23402539 116 17703783696461758909
23402655 69 18341039719530178605
23552423 10 18262236728275438599
5084963 1 17750223884446604294
528886 8 18410288112186329794
53812653 166 18341608230970207008

>  <PUBCHEM_SHAPE_MULTIPOLES>
209.41
6.01
1.38
0.64
2.91
0.2
0.01
-1.47
0.56
-0.02
-0.06
0.09
0.02
-0.29

>  <PUBCHEM_SHAPE_SELFOVERLAP>
425.051

>  <PUBCHEM_SHAPE_VOLUME>
124.4

>  <PUBCHEM_COORDINATE_TYPE>
2
5
10

$$$$
