57035832
 OpenBabel01182520543D

 27 28  0  0  0  0  0  0  0  0999 V2000
   -0.9127    2.2858    0.3923 O   0  0  0  0  0  0  0  0  0  0  0  0
   -1.8386    0.1832    0.0551 N   0  0  0  0  0  0  0  0  0  0  0  0
    2.7387    0.5362   -0.9516 N   0  0  0  0  0  0  0  0  0  0  0  0
    4.4494   -0.9165   -0.1518 N   0  0  0  0  0  0  0  0  0  0  0  0
   -4.0423   -0.6492    0.0562 C   0  0  0  0  0  0  0  0  0  0  0  0
   -3.1392   -1.6502   -0.6530 C   0  0  0  0  0  0  0  0  0  0  0  0
   -3.2230    0.6314    0.0158 C   0  0  0  0  0  0  0  0  0  0  0  0
   -1.7513   -1.2591   -0.1650 C   0  0  0  0  0  0  0  0  0  0  0  0
   -0.7898    1.0764    0.2085 C   0  0  0  0  0  0  0  0  0  0  0  0
    0.5782    0.5393    0.1336 C   0  0  0  0  0  0  0  0  0  0  0  0
    1.0165   -0.4335    1.0252 C   0  0  0  0  0  0  0  0  0  0  0  0
    1.4700    0.9869   -0.8277 C   0  0  0  0  0  0  0  0  0  0  0  0
    2.3150   -0.9219    0.9297 C   0  0  0  0  0  0  0  0  0  0  0  0
    3.1292   -0.4089   -0.0672 C   0  0  0  0  0  0  0  0  0  0  0  0
   -5.0196   -0.5399   -0.4216 H   0  0  0  0  0  0  0  0  0  0  0  0
   -4.1993   -0.9630    1.0952 H   0  0  0  0  0  0  0  0  0  0  0  0
   -3.3892   -2.6898   -0.4246 H   0  0  0  0  0  0  0  0  0  0  0  0
   -3.2099   -1.5088   -1.7383 H   0  0  0  0  0  0  0  0  0  0  0  0
   -3.3717    1.1756   -0.9235 H   0  0  0  0  0  0  0  0  0  0  0  0
   -3.4360    1.3054    0.8509 H   0  0  0  0  0  0  0  0  0  0  0  0
   -1.5346   -1.7376    0.7955 H   0  0  0  0  0  0  0  0  0  0  0  0
   -0.9685   -1.5091   -0.8862 H   0  0  0  0  0  0  0  0  0  0  0  0
    0.3697   -0.8049    1.8150 H   0  0  0  0  0  0  0  0  0  0  0  0
    1.1861    1.7433   -1.5531 H   0  0  0  0  0  0  0  0  0  0  0  0
    2.6654   -1.6777    1.6250 H   0  0  0  0  0  0  0  0  0  0  0  0
    4.8877   -1.2625    0.6930 H   0  0  0  0  0  0  0  0  0  0  0  0
    5.0427   -0.5344   -0.8778 H   0  0  0  0  0  0  0  0  0  0  0  0
  1  9  2  0  0  0  0
  2  7  1  0  0  0  0
  2  8  1  0  0  0  0
  2  9  1  0  0  0  0
  3 12  1  0  0  0  0
  3 14  2  0  0  0  0
  4 14  1  0  0  0  0
  4 26  1  0  0  0  0
  4 27  1  0  0  0  0
  5  6  1  0  0  0  0
  5  7  1  0  0  0  0
  5 15  1  0  0  0  0
  5 16  1  0  0  0  0
  6  8  1  0  0  0  0
  6 17  1  0  0  0  0
  6 18  1  0  0  0  0
  7 19  1  0  0  0  0
  7 20  1  0  0  0  0
  8 21  1  0  0  0  0
  8 22  1  0  0  0  0
  9 10  1  0  0  0  0
 10 11  1  0  0  0  0
 10 12  2  0  0  0  0
 11 13  2  0  0  0  0
 11 23  1  0  0  0  0
 12 24  1  0  0  0  0
 13 14  1  0  0  0  0
 13 25  1  0  0  0  0
M  END
>  <PUBCHEM_COMPOUND_CID>
57035832

>  <PUBCHEM_CONFORMER_RMSD>
0.6

>  <PUBCHEM_CONFORMER_DIVERSEORDER>
2
3
1
4

>  <PUBCHEM_MMFF94_PARTIAL_CHARGES>
17
1 -0.57
10 0.09
11 -0.15
12 0.16
13 -0.15
14 0.41
2 -0.66
23 0.15
24 0.15
25 0.15
26 0.4
27 0.4
3 -0.62
4 -0.9
7 0.3
8 0.3
9 0.54

>  <PUBCHEM_EFFECTIVE_ROTOR_COUNT>
3

>  <PUBCHEM_PHARMACOPHORE_FEATURES>
5
1 1 acceptor
1 4 donor
3 3 4 14 cation
5 2 5 6 7 8 rings
6 3 10 11 12 13 14 rings

>  <PUBCHEM_HEAVY_ATOM_COUNT>
14

>  <PUBCHEM_ATOM_DEF_STEREO_COUNT>
0

>  <PUBCHEM_ATOM_UDEF_STEREO_COUNT>
0

>  <PUBCHEM_BOND_DEF_STEREO_COUNT>
0

>  <PUBCHEM_BOND_UDEF_STEREO_COUNT>
0

>  <PUBCHEM_ISOTOPIC_ATOM_COUNT>
0

>  <PUBCHEM_COMPONENT_COUNT>
1

>  <PUBCHEM_CACTVS_TAUTO_COUNT>
4

>  <PUBCHEM_CONFORMER_ID>
03664C3800000002

>  <PUBCHEM_MMFF94_ENERGY>
44.3245

>  <PUBCHEM_FEATURE_SELFOVERLAP>
25.372

>  <PUBCHEM_SHAPE_FINGERPRINT>
10130415 120 18411982485701564433
11471102 22 14979960272058718762
11578080 2 17971442231016251396
11769659 78 18409725145301023930
11806522 49 18334856138996762800
12251169 10 12247680486984746051
12346177 29 17632285805513579335
13288520 33 18343304730478506798
13296908 3 18272364325858164129
14115302 16 18114187474842490567
14128692 85 18335700563383634320
14350558 41 18201444649119673046
14576447 43 18186516626957276618
15375462 189 18334296483035273147
15757776 16 17749103375114153738
16752209 62 18339627942194194761
16945 1 18341322293269216113
17844478 74 15698002907625133496
18186145 218 17167858694630425723
18915474 69 18336827597098799615
19422 9 18335989752385300759
200 152 18187082849606724914
20279233 1 16630809906702325903
20281407 28 17989209252161658958
20361792 2 18271234032326410933
21119208 17 18113899351150839183
21267235 1 18408895039728845659
21713013 43 17313661680743306227
22485316 2 18272647969519111111
232386 152 18342174505138521191
23402539 116 18408599245573523022
23402655 69 17822007566887266237
23463225 33 18410292501864666639
23557571 272 17846222107825229672
23559900 14 18272644620183040248
305870 269 9295026664355757521
449060 23 18410294679428877614
465052 167 18195819685672804719
568465 68 16343707667940525022
57096353 35 18187936113579558964
7364860 26 18127406980347456585
74978 22 18269550718900576367
77492 1 18187086130735015617

>  <PUBCHEM_SHAPE_MULTIPOLES>
267.3
6.96
1.62
0.89
0.35
0.37
0.02
-2.77
-0.85
-0.65
0
0.34
-0.04
-0.63

>  <PUBCHEM_SHAPE_SELFOVERLAP>
564.643

>  <PUBCHEM_SHAPE_VOLUME>
150.5

>  <PUBCHEM_COORDINATE_TYPE>
2
5
10

$$$$
