57066748
 OpenBabel01182520543D

 18 18  0  0  0  0  0  0  0  0999 V2000
   -3.9742   -0.6083   -0.2817 O   0  0  0  0  0  0  0  0  0  0  0  0
    0.3998    1.2536    0.2005 N   0  0  0  0  0  0  0  0  0  0  0  0
    2.3117   -0.0370    0.5366 N   0  0  0  0  0  0  0  0  0  0  0  0
    2.8937   -0.1230   -0.5683 N   0  0  0  0  0  0  0  0  0  0  0  0
   -1.7679    0.2083   -0.0312 C   0  0  0  0  0  0  0  0  0  0  0  0
   -1.1874   -1.0460    0.1211 C   0  0  0  0  0  0  0  0  0  0  0  0
    0.1857   -1.1518    0.3132 C   0  0  0  0  0  0  0  0  0  0  0  0
    0.9282    0.0176    0.3447 C   0  0  0  0  0  0  0  0  0  0  0  0
   -0.9380    1.3169    0.0159 C   0  0  0  0  0  0  0  0  0  0  0  0
   -3.1988    0.3520   -0.2330 C   0  0  0  0  0  0  0  0  0  0  0  0
    4.3471   -0.1823   -0.4177 C   0  0  0  0  0  0  0  0  0  0  0  0
   -1.7866   -1.9521    0.0936 H   0  0  0  0  0  0  0  0  0  0  0  0
    0.6507   -2.1244    0.4344 H   0  0  0  0  0  0  0  0  0  0  0  0
   -1.3292    2.3235   -0.0963 H   0  0  0  0  0  0  0  0  0  0  0  0
   -3.5810    1.3809   -0.3449 H   0  0  0  0  0  0  0  0  0  0  0  0
    4.6457   -1.0600    0.1651 H   0  0  0  0  0  0  0  0  0  0  0  0
    4.7283    0.7209    0.0701 H   0  0  0  0  0  0  0  0  0  0  0  0
    4.8100   -0.2565   -1.4060 H   0  0  0  0  0  0  0  0  0  0  0  0
  1 10  2  0  0  0  0
  2  8  2  0  0  0  0
  2  9  1  0  0  0  0
  3  4  2  0  0  0  0
  3  8  1  0  0  0  0
  4 11  1  0  0  0  0
  5  6  1  0  0  0  0
  5  9  2  0  0  0  0
  5 10  1  0  0  0  0
  6  7  2  0  0  0  0
  6 12  1  0  0  0  0
  7  8  1  0  0  0  0
  7 13  1  0  0  0  0
  9 14  1  0  0  0  0
 10 15  1  0  0  0  0
 11 16  1  0  0  0  0
 11 17  1  0  0  0  0
 11 18  1  0  0  0  0
M  END
>  <PUBCHEM_COMPOUND_CID>
57066748

>  <PUBCHEM_CONFORMER_RMSD>
0.4

>  <PUBCHEM_CONFORMER_DIVERSEORDER>
2
10
1
9
6
5
8
7
3
4

>  <PUBCHEM_MMFF94_PARTIAL_CHARGES>
15
1 -0.57
10 0.42
11 0.25
12 0.15
13 0.15
14 0.15
15 0.06
2 -0.62
3 -0.18
4 -0.25
5 0.09
6 -0.15
7 -0.15
8 0.49
9 0.16

>  <PUBCHEM_EFFECTIVE_ROTOR_COUNT>
2

>  <PUBCHEM_PHARMACOPHORE_FEATURES>
3
1 1 acceptor
3 2 3 8 cation
6 2 5 6 7 8 9 rings

>  <PUBCHEM_HEAVY_ATOM_COUNT>
11

>  <PUBCHEM_ATOM_DEF_STEREO_COUNT>
0

>  <PUBCHEM_ATOM_UDEF_STEREO_COUNT>
0

>  <PUBCHEM_BOND_DEF_STEREO_COUNT>
0

>  <PUBCHEM_BOND_UDEF_STEREO_COUNT>
0

>  <PUBCHEM_ISOTOPIC_ATOM_COUNT>
0

>  <PUBCHEM_COMPONENT_COUNT>
1

>  <PUBCHEM_CACTVS_TAUTO_COUNT>
1

>  <PUBCHEM_CONFORMER_ID>
0366C4FC00000002

>  <PUBCHEM_MMFF94_ENERGY>
24.973

>  <PUBCHEM_FEATURE_SELFOVERLAP>
15.223

>  <PUBCHEM_SHAPE_FINGERPRINT>
11062470 55 12829207767288629847
12032990 46 18412547647526362803
13690532 89 18334857195358342018
14325111 11 18336544923831124144
14911166 2 18408881849952461823
14993402 34 17967532380472672999
15310529 11 16443333252607389169
16945 1 18337098021398554913
193761 8 17688872359840521379
20201158 50 18202569462510475118
20645476 183 17603871130253171170
21119208 17 17748830713420741150
21293036 1 18335139799573698572
23235685 24 18334852809843181483
23402539 116 18341043043380886156
23402655 69 18193535798300590765
23559900 14 18411983585904152140
2748010 2 18120649403594825835

>  <PUBCHEM_SHAPE_MULTIPOLES>
205.56
6.32
1.17
0.68
2.91
0.08
0
-0.59
-1.48
-0.37
0.07
0.15
-0.01
0

>  <PUBCHEM_SHAPE_SELFOVERLAP>
423.779

>  <PUBCHEM_SHAPE_VOLUME>
117.6

>  <PUBCHEM_COORDINATE_TYPE>
2
5
10

$$$$
