57214035
 OpenBabel01182520543D

 16 16  0  0  0  0  0  0  0  0999 V2000
    3.8263   -0.5860    0.2444 S   0  0  0  0  0  0  0  0  0  0  0  0
    1.7341    1.4824   -0.4268 O   0  0  0  0  0  0  0  0  0  0  0  0
   -2.3601    0.9895    0.2632 N   0  0  0  0  0  0  0  0  0  0  0  0
    2.1380   -0.7163    0.2197 N   0  0  0  0  0  0  0  0  0  0  0  0
   -0.1279    0.1151   -0.0495 C   0  0  0  0  0  0  0  0  0  0  0  0
   -0.6462   -1.1614   -0.2371 C   0  0  0  0  0  0  0  0  0  0  0  0
   -1.0191    1.1474    0.1954 C   0  0  0  0  0  0  0  0  0  0  0  0
    1.3026    0.3581   -0.1100 C   0  0  0  0  0  0  0  0  0  0  0  0
   -2.0206   -1.3637   -0.1749 C   0  0  0  0  0  0  0  0  0  0  0  0
   -2.8271   -0.2652    0.0757 C   0  0  0  0  0  0  0  0  0  0  0  0
   -0.0172   -2.0175   -0.4614 H   0  0  0  0  0  0  0  0  0  0  0  0
   -0.6819    2.1672    0.3547 H   0  0  0  0  0  0  0  0  0  0  0  0
   -2.4479   -2.3486   -0.3245 H   0  0  0  0  0  0  0  0  0  0  0  0
   -3.9056   -0.3696    0.1324 H   0  0  0  0  0  0  0  0  0  0  0  0
    1.7537   -1.6048    0.5241 H   0  0  0  0  0  0  0  0  0  0  0  0
    3.9808   -0.4715    1.5715 H   0  0  0  0  0  0  0  0  0  0  0  0
  1  4  1  0  0  0  0
  1 16  1  0  0  0  0
  2  8  2  0  0  0  0
  3  7  1  0  0  0  0
  3 10  2  0  0  0  0
  4  8  1  0  0  0  0
  4 15  1  0  0  0  0
  5  6  1  0  0  0  0
  5  7  2  0  0  0  0
  5  8  1  0  0  0  0
  6  9  2  0  0  0  0
  6 11  1  0  0  0  0
  7 12  1  0  0  0  0
  9 10  1  0  0  0  0
  9 13  1  0  0  0  0
 10 14  1  0  0  0  0
M  END
>  <PUBCHEM_COMPOUND_CID>
57214035

>  <PUBCHEM_CONFORMER_RMSD>
0.4

>  <PUBCHEM_CONFORMER_DIVERSEORDER>
2
8
15
6
14
3
7
13
16
5
4
11
10
1
12
9

>  <PUBCHEM_MMFF94_PARTIAL_CHARGES>
16
1 -0.17
10 0.16
11 0.15
12 0.15
13 0.15
14 0.15
15 0.37
16 0.18
2 -0.57
3 -0.62
4 -0.44
5 0.09
6 -0.15
7 0.16
8 0.54
9 -0.15

>  <PUBCHEM_EFFECTIVE_ROTOR_COUNT>
2

>  <PUBCHEM_PHARMACOPHORE_FEATURES>
4
1 2 acceptor
1 3 acceptor
1 4 donor
6 3 5 6 7 9 10 rings

>  <PUBCHEM_HEAVY_ATOM_COUNT>
10

>  <PUBCHEM_ATOM_DEF_STEREO_COUNT>
0

>  <PUBCHEM_ATOM_UDEF_STEREO_COUNT>
0

>  <PUBCHEM_BOND_DEF_STEREO_COUNT>
0

>  <PUBCHEM_BOND_UDEF_STEREO_COUNT>
0

>  <PUBCHEM_ISOTOPIC_ATOM_COUNT>
0

>  <PUBCHEM_COMPONENT_COUNT>
1

>  <PUBCHEM_CACTVS_TAUTO_COUNT>
2

>  <PUBCHEM_CONFORMER_ID>
0369045300000002

>  <PUBCHEM_MMFF94_ENERGY>
26.3907

>  <PUBCHEM_FEATURE_SELFOVERLAP>
20.297

>  <PUBCHEM_SHAPE_FINGERPRINT>
12932764 1 17773882080478541156
13024252 1 15285360596199259839
14325111 11 18411700988975795048
16945 1 18339931428435088431
20645464 45 17131834269851349718
20653085 51 17095513011682714909
20871998 184 18060137686523700615
21040471 1 18270968951208252773
23402539 116 17988351599433908085
23463225 33 18263924346002685202
23552423 10 18261393420047333566
29004967 10 16081364193668975373
369184 2 15697997422793621071
5084963 1 18411417310723027217
7364860 26 18270400637025665400

>  <PUBCHEM_SHAPE_MULTIPOLES>
193.81
5.11
1.43
0.65
3.71
0.08
0
-0.95
0.49
-0.31
-0.08
0.05
0
-0.3

>  <PUBCHEM_SHAPE_SELFOVERLAP>
391.43

>  <PUBCHEM_SHAPE_VOLUME>
115.3

>  <PUBCHEM_COORDINATE_TYPE>
2
5
10

$$$$
