578218
 OpenBabel01182520543D

 17 17  0  0  0  0  0  0  0  0999 V2000
    2.0000   -1.2751    1.1131 O   0  0  0  0  0  0  0  0  0  0  0  0
    1.7954    1.2582    0.0247 O   0  5  0  0  0  0  0  0  0  0  0  0
    0.2604    2.8272   -0.0101 O   0  0  0  0  0  0  0  0  0  0  0  0
   -1.7176    1.0092   -0.0173 N   0  0  0  0  0  0  0  0  0  0  0  0
    0.6025    1.6266    0.0062 N   0  3  0  0  0  0  0  0  0  0  0  0
    2.0328   -1.2807   -1.1798 N   0  0  0  0  0  0  0  0  0  0  0  0
   -0.0050   -0.6969    0.0211 C   0  0  0  0  0  0  0  0  0  0  0  0
   -0.4218    0.6245    0.0031 C   0  0  0  0  0  0  0  0  0  0  0  0
   -0.9811   -1.6872    0.0181 C   0  0  0  0  0  0  0  0  0  0  0  0
   -2.3251   -1.3309   -0.0024 C   0  0  0  0  0  0  0  0  0  0  0  0
    1.3974   -1.0937    0.0425 C   0  0  0  0  0  0  0  0  0  0  0  0
   -2.6379    0.0188   -0.0193 C   0  0  0  0  0  0  0  0  0  0  0  0
   -0.7081   -2.7391    0.0319 H   0  0  0  0  0  0  0  0  0  0  0  0
   -3.1029   -2.0857   -0.0050 H   0  0  0  0  0  0  0  0  0  0  0  0
   -3.6713    0.3491   -0.0356 H   0  0  0  0  0  0  0  0  0  0  0  0
    1.5529   -1.1431   -2.0636 H   0  0  0  0  0  0  0  0  0  0  0  0
    3.0064   -1.5625   -1.2241 H   0  0  0  0  0  0  0  0  0  0  0  0
  1 11  2  0  0  0  0
  2  5  1  0  0  0  0
  3  5  2  0  0  0  0
  4  8  1  0  0  0  0
  4 12  2  0  0  0  0
  5  8  1  0  0  0  0
  6 11  1  0  0  0  0
  6 16  1  0  0  0  0
  6 17  1  0  0  0  0
  7  8  2  0  0  0  0
  7  9  1  0  0  0  0
  7 11  1  0  0  0  0
  9 10  2  0  0  0  0
  9 13  1  0  0  0  0
 10 12  1  0  0  0  0
 10 14  1  0  0  0  0
 12 15  1  0  0  0  0
M  CHG  2   2  -1   5   1
M  END
>  <PUBCHEM_COMPOUND_CID>
578218

>  <PUBCHEM_CONFORMER_RMSD>
0.6

>  <PUBCHEM_CONFORMER_DIVERSEORDER>
1
2

>  <PUBCHEM_MMFF94_PARTIAL_CHARGES>
17
1 -0.57
10 -0.15
11 0.54
12 0.16
13 0.15
14 0.15
15 0.15
16 0.37
17 0.37
2 -0.52
3 -0.52
4 -0.62
5 0.91
6 -0.8
7 0.09
8 0.44
9 -0.15

>  <PUBCHEM_EFFECTIVE_ROTOR_COUNT>
2

>  <PUBCHEM_PHARMACOPHORE_FEATURES>
7
1 1 acceptor
1 2 acceptor
1 2 anion
1 3 acceptor
1 4 acceptor
1 6 donor
6 4 7 8 9 10 12 rings

>  <PUBCHEM_HEAVY_ATOM_COUNT>
12

>  <PUBCHEM_ATOM_DEF_STEREO_COUNT>
0

>  <PUBCHEM_ATOM_UDEF_STEREO_COUNT>
0

>  <PUBCHEM_BOND_DEF_STEREO_COUNT>
0

>  <PUBCHEM_BOND_UDEF_STEREO_COUNT>
0

>  <PUBCHEM_ISOTOPIC_ATOM_COUNT>
0

>  <PUBCHEM_COMPONENT_COUNT>
1

>  <PUBCHEM_CACTVS_TAUTO_COUNT>
2

>  <PUBCHEM_CONFORMER_ID>
0008D2AA00000001

>  <PUBCHEM_MMFF94_ENERGY>
45.8943

>  <PUBCHEM_FEATURE_SELFOVERLAP>
35.615

>  <PUBCHEM_SHAPE_FINGERPRINT>
12423570 1 9929276785884513258
12524768 44 18342739602465002407
161256 15 18265064711185021671
16945 1 18194117658060890795
17990270 104 18341615966085130535
18185500 45 18263361399922075707
193761 8 18266458887681378123
21040471 1 17185313690761167409
22802520 49 17554061939165255310
23552423 10 18190461756250096655
23559900 14 17048235932067411734
241688 4 18339364045917110377
2748010 2 18411133611048209237
5084963 1 17989209205223214227
7364860 26 18128257976571893233

>  <PUBCHEM_SHAPE_MULTIPOLES>
214.4
3.08
2.35
0.75
0.93
1.3
0.02
-0.82
0.04
-0.7
0.01
-0.33
-0.28
0.03

>  <PUBCHEM_SHAPE_SELFOVERLAP>
456.382

>  <PUBCHEM_SHAPE_VOLUME>
116.9

>  <PUBCHEM_COORDINATE_TYPE>
2
5
10

$$$$
