58207556
 OpenBabel01182520543D

 32 32  0  0  0  0  0  0  0  0999 V2000
    0.1880   -2.0269    0.9030 O   0  0  0  0  0  0  0  0  0  0  0  0
    3.7588   -0.0259   -0.5144 N   0  0  0  0  0  0  0  0  0  0  0  0
    2.4686   -1.9534   -1.0048 N   0  0  0  0  0  0  0  0  0  0  0  0
   -1.0356   -0.2831   -0.1657 C   0  0  0  0  0  0  0  0  0  0  0  0
    1.4792   -0.1740    0.2771 C   0  0  0  0  0  0  0  0  0  0  0  0
    0.2018   -0.9128    0.3895 C   0  0  0  0  0  0  0  0  0  0  0  0
   -2.1810   -0.6128    0.4594 C   0  0  0  0  0  0  0  0  0  0  0  0
   -3.5125   -0.1398    0.1174 C   0  0  0  0  0  0  0  0  0  0  0  0
   -0.9115    0.5437   -1.4112 C   0  0  0  0  0  0  0  0  0  0  0  0
    2.5796   -0.6768   -0.3984 C   0  0  0  0  0  0  0  0  0  0  0  0
    1.5965    1.0775    0.8716 C   0  0  0  0  0  0  0  0  0  0  0  0
   -4.5864   -1.1855    0.2428 C   0  0  0  0  0  0  0  0  0  0  0  0
   -3.8050    1.1209   -0.2549 C   0  0  0  0  0  0  0  0  0  0  0  0
    2.7936    1.7779    0.7739 C   0  0  0  0  0  0  0  0  0  0  0  0
    3.8353    1.1878    0.0763 C   0  0  0  0  0  0  0  0  0  0  0  0
   -2.8692    2.2832   -0.3616 C   0  0  0  0  0  0  0  0  0  0  0  0
   -2.1569   -1.2710    1.3267 H   0  0  0  0  0  0  0  0  0  0  0  0
   -0.5281    1.5477   -1.2151 H   0  0  0  0  0  0  0  0  0  0  0  0
   -1.8241    0.5710   -2.0110 H   0  0  0  0  0  0  0  0  0  0  0  0
   -0.1800    0.0677   -2.0780 H   0  0  0  0  0  0  0  0  0  0  0  0
    0.7674    1.5182    1.4190 H   0  0  0  0  0  0  0  0  0  0  0  0
   -4.6559   -1.5485    1.2742 H   0  0  0  0  0  0  0  0  0  0  0  0
   -4.3719   -2.0373   -0.4121 H   0  0  0  0  0  0  0  0  0  0  0  0
   -5.5728   -0.7989   -0.0358 H   0  0  0  0  0  0  0  0  0  0  0  0
   -4.8401    1.3564   -0.4980 H   0  0  0  0  0  0  0  0  0  0  0  0
    2.9082    2.7543    1.2304 H   0  0  0  0  0  0  0  0  0  0  0  0
    4.7898    1.6928   -0.0285 H   0  0  0  0  0  0  0  0  0  0  0  0
   -3.3953    3.1628    0.0325 H   0  0  0  0  0  0  0  0  0  0  0  0
   -2.6332    2.5251   -1.4004 H   0  0  0  0  0  0  0  0  0  0  0  0
   -1.9790    2.2020    0.2645 H   0  0  0  0  0  0  0  0  0  0  0  0
    3.2873   -2.2940   -1.4943 H   0  0  0  0  0  0  0  0  0  0  0  0
    1.8546   -2.6391   -0.5832 H   0  0  0  0  0  0  0  0  0  0  0  0
  1  6  2  0  0  0  0
  2 10  1  0  0  0  0
  2 15  2  0  0  0  0
  3 10  1  0  0  0  0
  3 31  1  0  0  0  0
  3 32  1  0  0  0  0
  4  6  1  0  0  0  0
  4  7  2  0  0  0  0
  4  9  1  0  0  0  0
  5  6  1  0  0  0  0
  5 10  2  0  0  0  0
  5 11  1  0  0  0  0
  7  8  1  0  0  0  0
  7 17  1  0  0  0  0
  8 12  1  0  0  0  0
  8 13  2  0  0  0  0
  9 18  1  0  0  0  0
  9 19  1  0  0  0  0
  9 20  1  0  0  0  0
 11 14  2  0  0  0  0
 11 21  1  0  0  0  0
 12 22  1  0  0  0  0
 12 23  1  0  0  0  0
 12 24  1  0  0  0  0
 13 16  1  0  0  0  0
 13 25  1  0  0  0  0
 14 15  1  0  0  0  0
 14 26  1  0  0  0  0
 15 27  1  0  0  0  0
 16 28  1  0  0  0  0
 16 29  1  0  0  0  0
 16 30  1  0  0  0  0
M  END
>  <PUBCHEM_COMPOUND_CID>
58207556

>  <PUBCHEM_CONFORMER_RMSD>
0.6

>  <PUBCHEM_CONFORMER_DIVERSEORDER>
22
14
16
19
20
9
7
17
13
10
5
18
21
6
8
3
15
2
1
12
4
11

>  <PUBCHEM_MMFF94_PARTIAL_CHARGES>
23
1 -0.57
10 0.41
11 -0.15
12 0.14
13 -0.29
14 -0.15
15 0.16
16 0.14
17 0.15
2 -0.62
21 0.15
25 0.15
26 0.15
27 0.15
3 -0.9
31 0.4
32 0.4
4 -0.12
5 0.09
6 0.47
7 -0.15
8 -0.14
9 0.14

>  <PUBCHEM_EFFECTIVE_ROTOR_COUNT>
3

>  <PUBCHEM_PHARMACOPHORE_FEATURES>
8
1 1 acceptor
1 12 hydrophobe
1 16 hydrophobe
1 2 acceptor
1 3 cation
1 3 donor
1 9 hydrophobe
6 2 5 10 11 14 15 rings

>  <PUBCHEM_HEAVY_ATOM_COUNT>
16

>  <PUBCHEM_ATOM_DEF_STEREO_COUNT>
0

>  <PUBCHEM_ATOM_UDEF_STEREO_COUNT>
0

>  <PUBCHEM_BOND_DEF_STEREO_COUNT>
2

>  <PUBCHEM_BOND_UDEF_STEREO_COUNT>
0

>  <PUBCHEM_ISOTOPIC_ATOM_COUNT>
0

>  <PUBCHEM_COMPONENT_COUNT>
1

>  <PUBCHEM_CACTVS_TAUTO_COUNT>
19

>  <PUBCHEM_CONFORMER_ID>
03782D4400000016

>  <PUBCHEM_MMFF94_ENERGY>
62.6596

>  <PUBCHEM_FEATURE_SELFOVERLAP>
40.599

>  <PUBCHEM_SHAPE_FINGERPRINT>
10498660 4 18187076226952336237
10608611 8 18411416202621620665
10646746 165 18335417933034496669
10980938 120 18272087205872738114
11031198 65 18202004365004671516
11132069 177 17821727221908999469
11471102 20 18273497883934360032
11543360 7 17846206787470766855
11615757 297 17704077308667492275
11715629 250 18272359910373509345
12346645 44 18260263032121180331
13081056 2 18412545448308012969
14787075 74 18194117645566340217
15219456 202 18413107247067540269
15375462 6 18343864420388025311
16945 1 17917706894679723250
18186145 218 18201446860721647978
20510252 161 18409731768446653745
20645477 70 17703519830655718438
21501502 16 18042678399942130651
21524375 3 18339920523465768202
221357 26 18272652312095381997
23402539 116 18334565876300589454
23402655 69 18131634482344383744
23557571 272 18408889555598511885
23559900 14 18337388244975773071
25 1 18342737425285660024
276578 36 17312817174049975522
3286 77 18335698308721145190
3323516 105 18342182150196301118
4028521 119 18261946371971251557
4990 188 18342744004922518966
5104073 3 18336265656921239721
5281201 14 18272377451019829540
6333272 397 18187364397445009281
633830 44 18411979135547984965
6442390 28 18334297599452898547
69090 78 18200874084110283463
7364860 26 18191861215214005170
77779 3 18342460335423001331
81228 2 17610050544436045170
8272917 22 17632030658185518879

>  <PUBCHEM_SHAPE_MULTIPOLES>
313.44
7.95
2.01
0.98
2.81
0.27
0.14
1.26
0.11
0.08
-0.05
-0.2
-0.01
1.02

>  <PUBCHEM_SHAPE_SELFOVERLAP>
647.704

>  <PUBCHEM_SHAPE_VOLUME>
178.8

>  <PUBCHEM_COORDINATE_TYPE>
2
5
10

$$$$
