58337917
 OpenBabel01182520543D

 31 31  0  0  0  0  0  0  0  0999 V2000
    4.7934   -1.6108   -0.0070 O   0  0  0  0  0  0  0  0  0  0  0  0
   -1.0256    0.8619   -0.0055 N   0  0  0  0  0  0  0  0  0  0  0  0
   -7.0539   -0.8102    0.0104 N   0  0  0  0  0  0  0  0  0  0  0  0
    1.2259    1.5542   -0.0012 N   0  0  0  0  0  0  0  0  0  0  0  0
    5.2886    0.6281    0.0083 N   0  0  0  0  0  0  0  0  0  0  0  0
   -3.4527    0.5412   -0.0205 C   0  0  0  0  0  0  0  0  0  0  0  0
   -4.5997   -0.4776   -0.0196 C   0  0  0  0  0  0  0  0  0  0  0  0
   -2.0788   -0.1254   -0.0069 C   0  0  0  0  0  0  0  0  0  0  0  0
   -5.9818    0.1774    0.0285 C   0  0  0  0  0  0  0  0  0  0  0  0
    0.3240    0.5471   -0.0023 C   0  0  0  0  0  0  0  0  0  0  0  0
    0.6618   -0.7966   -0.0004 C   0  0  0  0  0  0  0  0  0  0  0  0
    2.0122   -1.1283    0.0029 C   0  0  0  0  0  0  0  0  0  0  0  0
    2.9700   -0.1201    0.0040 C   0  0  0  0  0  0  0  0  0  0  0  0
    2.5289    1.1934    0.0019 C   0  0  0  0  0  0  0  0  0  0  0  0
    4.3879   -0.4342    0.0073 C   0  0  0  0  0  0  0  0  0  0  0  0
   -3.5403    1.1870   -0.9035 H   0  0  0  0  0  0  0  0  0  0  0  0
   -3.5478    1.1962    0.8550 H   0  0  0  0  0  0  0  0  0  0  0  0
   -4.5226   -1.1040   -0.9174 H   0  0  0  0  0  0  0  0  0  0  0  0
   -4.4853   -1.1453    0.8440 H   0  0  0  0  0  0  0  0  0  0  0  0
   -2.0076   -0.7565    0.8874 H   0  0  0  0  0  0  0  0  0  0  0  0
   -1.9974   -0.7663   -0.8934 H   0  0  0  0  0  0  0  0  0  0  0  0
   -6.0714    0.7880    0.9340 H   0  0  0  0  0  0  0  0  0  0  0  0
   -6.1033    0.8456   -0.8310 H   0  0  0  0  0  0  0  0  0  0  0  0
   -1.2651    1.8468   -0.0065 H   0  0  0  0  0  0  0  0  0  0  0  0
   -0.0571   -1.6075   -0.0008 H   0  0  0  0  0  0  0  0  0  0  0  0
   -7.9516   -0.3370    0.1039 H   0  0  0  0  0  0  0  0  0  0  0  0
   -6.9681   -1.4240    0.8195 H   0  0  0  0  0  0  0  0  0  0  0  0
    2.2960   -2.1772    0.0048 H   0  0  0  0  0  0  0  0  0  0  0  0
    3.1859    2.0538    0.0021 H   0  0  0  0  0  0  0  0  0  0  0  0
    5.0414    1.6095    0.0149 H   0  0  0  0  0  0  0  0  0  0  0  0
    6.2857    0.4369    0.0038 H   0  0  0  0  0  0  0  0  0  0  0  0
  1 15  2  0  0  0  0
  2  8  1  0  0  0  0
  2 10  1  0  0  0  0
  2 24  1  0  0  0  0
  3  9  1  0  0  0  0
  3 26  1  0  0  0  0
  3 27  1  0  0  0  0
  4 10  2  0  0  0  0
  4 14  1  0  0  0  0
  5 15  1  0  0  0  0
  5 30  1  0  0  0  0
  5 31  1  0  0  0  0
  6  7  1  0  0  0  0
  6  8  1  0  0  0  0
  6 16  1  0  0  0  0
  6 17  1  0  0  0  0
  7  9  1  0  0  0  0
  7 18  1  0  0  0  0
  7 19  1  0  0  0  0
  8 20  1  0  0  0  0
  8 21  1  0  0  0  0
  9 22  1  0  0  0  0
  9 23  1  0  0  0  0
 10 11  1  0  0  0  0
 11 12  2  0  0  0  0
 11 25  1  0  0  0  0
 12 13  1  0  0  0  0
 12 28  1  0  0  0  0
 13 14  2  0  0  0  0
 13 15  1  0  0  0  0
 14 29  1  0  0  0  0
M  END
>  <PUBCHEM_COMPOUND_CID>
58337917

>  <PUBCHEM_CONFORMER_RMSD>
0.8

>  <PUBCHEM_CONFORMER_DIVERSEORDER>
1
9
21
10
22
34
7
17
50
23
47
3
55
40
51
43
53
31
37
48
2
36
54
46
29
6
44
32
16
33
49
35
11
52
14
19
25
18
15
26
38
39
27
20
41
28
5
24
4
42
30
8
13
45
12

>  <PUBCHEM_MMFF94_PARTIAL_CHARGES>
21
1 -0.57
10 0.41
11 -0.15
12 -0.15
13 0.09
14 0.16
15 0.54
2 -0.87
24 0.4
25 0.15
26 0.36
27 0.36
28 0.15
29 0.15
3 -0.99
30 0.37
31 0.37
4 -0.62
5 -0.8
8 0.37
9 0.27

>  <PUBCHEM_EFFECTIVE_ROTOR_COUNT>
6

>  <PUBCHEM_PHARMACOPHORE_FEATURES>
7
1 1 acceptor
1 2 donor
1 3 cation
1 3 donor
1 5 donor
3 2 4 10 cation
6 4 10 11 12 13 14 rings

>  <PUBCHEM_HEAVY_ATOM_COUNT>
15

>  <PUBCHEM_ATOM_DEF_STEREO_COUNT>
0

>  <PUBCHEM_ATOM_UDEF_STEREO_COUNT>
0

>  <PUBCHEM_BOND_DEF_STEREO_COUNT>
0

>  <PUBCHEM_BOND_UDEF_STEREO_COUNT>
0

>  <PUBCHEM_ISOTOPIC_ATOM_COUNT>
0

>  <PUBCHEM_COMPONENT_COUNT>
1

>  <PUBCHEM_CACTVS_TAUTO_COUNT>
7

>  <PUBCHEM_CONFORMER_ID>
037A2A7D00000001

>  <PUBCHEM_MMFF94_ENERGY>
34.7952

>  <PUBCHEM_FEATURE_SELFOVERLAP>
35.522

>  <PUBCHEM_SHAPE_FINGERPRINT>
12236239 1 18060702780055672785
12815109 37 18407759235822220507
13533116 47 14045473201960452780
13690532 89 18410855434690719386
13862211 1 18336263449229323794
1420 363 18113904862211038979
14251718 22 18113054935301122237
14252887 29 17917718963548524102
15048467 5 9223227447018399171
15242439 84 17749108902984782153
17834072 33 18272087219005650813
17834076 25 11746934291735126453
200 152 18272650139020953633
20645477 70 18337108969239037494
21267235 1 18341056245809764367
23402539 116 17989200439653749749
23402655 69 18411132507479108069
23557571 272 17240760645295779949
23559900 14 18262796384637965937
26918003 58 18410857677043443291
4214541 1 18410573960315700709
42788 4 18410292506423137605
4463277 17 18412263930508268733
465052 167 18413393132981289639
5104073 3 18269830930682324552

>  <PUBCHEM_SHAPE_MULTIPOLES>
282.9
14.37
1.27
0.59
18.97
0.01
0
-3.28
-0.07
-1.03
0
0.02
0
0

>  <PUBCHEM_SHAPE_SELFOVERLAP>
569.519

>  <PUBCHEM_SHAPE_VOLUME>
165.3

>  <PUBCHEM_COORDINATE_TYPE>
2
5
10

$$$$
