58337908
 OpenBabel01182520543D

 35 36  0  0  0  0  0  0  0  0999 V2000
   -5.4253    1.2533    0.5244 O   0  0  0  0  0  0  0  0  0  0  0  0
    5.7822   -0.0650    0.4996 N   0  0  0  0  0  0  0  0  0  0  0  0
    0.6038   -0.4397   -0.3642 N   0  0  0  0  0  0  0  0  0  0  0  0
   -1.5666   -1.3474   -0.5200 N   0  0  0  0  0  0  0  0  0  0  0  0
   -5.6942   -0.9265   -0.1345 N   0  0  0  0  0  0  0  0  0  0  0  0
    2.9699    0.0966   -0.3286 C   0  0  0  0  0  0  0  0  0  0  0  0
    3.4361   -0.7975    0.8274 C   0  0  0  0  0  0  0  0  0  0  0  0
    3.9509    1.2605   -0.5182 C   0  0  0  0  0  0  0  0  0  0  0  0
    4.8938   -1.2202    0.6459 C   0  0  0  0  0  0  0  0  0  0  0  0
    5.3880    0.7560   -0.6472 C   0  0  0  0  0  0  0  0  0  0  0  0
    1.5520    0.6076   -0.0894 C   0  0  0  0  0  0  0  0  0  0  0  0
   -0.7706   -0.2928   -0.2337 C   0  0  0  0  0  0  0  0  0  0  0  0
   -1.2394    0.9412    0.1869 C   0  0  0  0  0  0  0  0  0  0  0  0
   -2.6138    1.1036    0.3225 C   0  0  0  0  0  0  0  0  0  0  0  0
   -3.4651    0.0419    0.0371 C   0  0  0  0  0  0  0  0  0  0  0  0
   -2.8967   -1.1520   -0.3768 C   0  0  0  0  0  0  0  0  0  0  0  0
   -4.9049    0.1802    0.1688 C   0  0  0  0  0  0  0  0  0  0  0  0
    2.9882   -0.4999   -1.2523 H   0  0  0  0  0  0  0  0  0  0  0  0
    2.8081   -1.6935    0.8947 H   0  0  0  0  0  0  0  0  0  0  0  0
    3.3326   -0.2639    1.7814 H   0  0  0  0  0  0  0  0  0  0  0  0
    3.8817    1.9500    0.3335 H   0  0  0  0  0  0  0  0  0  0  0  0
    3.6863    1.8336   -1.4148 H   0  0  0  0  0  0  0  0  0  0  0  0
    4.9905   -1.8815   -0.2239 H   0  0  0  0  0  0  0  0  0  0  0  0
    5.2097   -1.7976    1.5217 H   0  0  0  0  0  0  0  0  0  0  0  0
    6.0635    1.6160   -0.7124 H   0  0  0  0  0  0  0  0  0  0  0  0
    5.5071    0.1857   -1.5767 H   0  0  0  0  0  0  0  0  0  0  0  0
    1.3624    1.4503   -0.7662 H   0  0  0  0  0  0  0  0  0  0  0  0
    1.4580    0.9697    0.9419 H   0  0  0  0  0  0  0  0  0  0  0  0
    6.7389   -0.3914    0.3665 H   0  0  0  0  0  0  0  0  0  0  0  0
    0.9313   -1.3478   -0.6738 H   0  0  0  0  0  0  0  0  0  0  0  0
   -0.6053    1.7895    0.4162 H   0  0  0  0  0  0  0  0  0  0  0  0
   -2.9997    2.0647    0.6512 H   0  0  0  0  0  0  0  0  0  0  0  0
   -3.4640   -2.0401   -0.6247 H   0  0  0  0  0  0  0  0  0  0  0  0
   -5.3507   -1.8302   -0.4341 H   0  0  0  0  0  0  0  0  0  0  0  0
   -6.7040   -0.8555   -0.0574 H   0  0  0  0  0  0  0  0  0  0  0  0
  1 17  2  0  0  0  0
  2  9  1  0  0  0  0
  2 10  1  0  0  0  0
  2 29  1  0  0  0  0
  3 11  1  0  0  0  0
  3 12  1  0  0  0  0
  3 30  1  0  0  0  0
  4 12  2  0  0  0  0
  4 16  1  0  0  0  0
  5 17  1  0  0  0  0
  5 34  1  0  0  0  0
  5 35  1  0  0  0  0
  6  7  1  0  0  0  0
  6  8  1  0  0  0  0
  6 11  1  0  0  0  0
  6 18  1  0  0  0  0
  7  9  1  0  0  0  0
  7 19  1  0  0  0  0
  7 20  1  0  0  0  0
  8 10  1  0  0  0  0
  8 21  1  0  0  0  0
  8 22  1  0  0  0  0
  9 23  1  0  0  0  0
  9 24  1  0  0  0  0
 10 25  1  0  0  0  0
 10 26  1  0  0  0  0
 11 27  1  0  0  0  0
 11 28  1  0  0  0  0
 12 13  1  0  0  0  0
 13 14  2  0  0  0  0
 13 31  1  0  0  0  0
 14 15  1  0  0  0  0
 14 32  1  0  0  0  0
 15 16  2  0  0  0  0
 15 17  1  0  0  0  0
 16 33  1  0  0  0  0
M  END
>  <PUBCHEM_COMPOUND_CID>
58337908

>  <PUBCHEM_CONFORMER_RMSD>
0.6

>  <PUBCHEM_CONFORMER_DIVERSEORDER>
1
63
102
19
88
71
103
10
68
101
83
12
78
34
107
57
98
13
70
76
2
96
36
20
99
79
7
84
4
104
61
32
44
64
80
9
66
100
55
14
47
42
3
15
105
38
81
87
97
27
6
82
54
72
49
35
21
90
106
91
43
95
85
16
23
77
26
58
24
46
59
69
25
89
52
86
94
17
67
60
92
62
75
48
31
8
33
51
53
93
30
65
11
56
37
40
73
29
22
50
28
18
5
39
41
74
45

>  <PUBCHEM_MMFF94_PARTIAL_CHARGES>
21
1 -0.57
10 0.27
11 0.37
12 0.41
13 -0.15
14 -0.15
15 0.09
16 0.16
17 0.54
2 -0.9
29 0.36
3 -0.87
30 0.4
31 0.15
32 0.15
33 0.15
34 0.37
35 0.37
4 -0.62
5 -0.8
9 0.27

>  <PUBCHEM_EFFECTIVE_ROTOR_COUNT>
5.2

>  <PUBCHEM_PHARMACOPHORE_FEATURES>
8
1 1 acceptor
1 2 cation
1 2 donor
1 3 donor
1 5 donor
3 3 4 12 cation
6 2 6 7 8 9 10 rings
6 4 12 13 14 15 16 rings

>  <PUBCHEM_HEAVY_ATOM_COUNT>
17

>  <PUBCHEM_ATOM_DEF_STEREO_COUNT>
0

>  <PUBCHEM_ATOM_UDEF_STEREO_COUNT>
0

>  <PUBCHEM_BOND_DEF_STEREO_COUNT>
0

>  <PUBCHEM_BOND_UDEF_STEREO_COUNT>
0

>  <PUBCHEM_ISOTOPIC_ATOM_COUNT>
0

>  <PUBCHEM_COMPONENT_COUNT>
1

>  <PUBCHEM_CACTVS_TAUTO_COUNT>
7

>  <PUBCHEM_CONFORMER_ID>
037A2A7400000001

>  <PUBCHEM_MMFF94_ENERGY>
39.3886

>  <PUBCHEM_FEATURE_SELFOVERLAP>
40.596

>  <PUBCHEM_SHAPE_FINGERPRINT>
10354089 29 18260550030874258852
11287383 113 15936697038097901332
12107183 9 17614839617796636272
12236239 1 18334576841051480592
13167823 11 18334574642286889346
13533116 47 18186799150195911314
13862211 1 18271803553901749807
14123238 8 18411419513904008948
1420 363 14851607673888343009
15242433 33 18408041827469413574
17834072 33 18334294292586127518
17834076 25 17917712404748256646
17844677 252 16225766302740047948
1813 80 17313673650716544414
19489759 90 16773799182102423323
200 152 18334572447299949749
20279233 1 16272211903206819990
20281389 69 18408322181444283877
20645477 56 16988840575219899253
20645477 70 17895189966333034794
21267235 1 18335989696809247142
212847 35 18342457045604919664
220451 1 18259709999046960634
2297311 6 17846790602227859124
23402539 116 18131063836226247741
23536379 177 18259703384918585817
23557571 272 17131568157994256096
23559900 14 17988922314535284616
26918003 58 17603307063402082969
300161 21 18410568505205789132
3004659 81 18410578366819894518
34797466 226 17489315239033565276
3545911 37 18342459240396245062
42 15 18260267434367752014
4214541 1 18409165493666370580
42788 4 18410012143331338189
5104073 3 18411138086193051376
522135 26 18113899360510744542
5374978 207 18343298176316163232
542803 24 18187366532149204868
573450 72 18341324544006249882

>  <PUBCHEM_SHAPE_MULTIPOLES>
324.06
14.43
1.32
0.78
1.27
0.03
-0.02
-0.22
-1.19
0.02
-0.01
0.34
0.03
-1.17

>  <PUBCHEM_SHAPE_SELFOVERLAP>
671.493

>  <PUBCHEM_SHAPE_VOLUME>
183.2

>  <PUBCHEM_COORDINATE_TYPE>
2
5
10

$$$$
