58339434
 OpenBabel01182520543D

 27 27  0  0  0  0  0  0  0  0999 V2000
   -1.3255   -1.6367   -0.9300 O   0  0  0  0  0  0  0  0  0  0  0  0
    2.3089    1.3029   -0.2328 N   0  0  0  0  0  0  0  0  0  0  0  0
    4.4554    0.5496    0.4754 N   0  0  0  0  0  0  0  0  0  0  0  0
   -3.3676    0.1545    0.0534 C   0  0  0  0  0  0  0  0  0  0  0  0
   -1.9730    0.6271   -0.3934 C   0  0  0  0  0  0  0  0  0  0  0  0
   -4.3425    1.3283    0.1786 C   0  0  0  0  0  0  0  0  0  0  0  0
   -3.2682   -0.5779    1.3933 C   0  0  0  0  0  0  0  0  0  0  0  0
   -0.9787   -0.5125   -0.5760 C   0  0  0  0  0  0  0  0  0  0  0  0
    0.4616   -0.2556   -0.2912 C   0  0  0  0  0  0  0  0  0  0  0  0
    1.2947   -1.2715    0.1642 C   0  0  0  0  0  0  0  0  0  0  0  0
    1.0124    1.0028   -0.4718 C   0  0  0  0  0  0  0  0  0  0  0  0
    2.6344   -1.0015    0.4214 C   0  0  0  0  0  0  0  0  0  0  0  0
    3.0881    0.2903    0.2089 C   0  0  0  0  0  0  0  0  0  0  0  0
   -3.7669   -0.5449   -0.6916 H   0  0  0  0  0  0  0  0  0  0  0  0
   -2.0481    1.1531   -1.3523 H   0  0  0  0  0  0  0  0  0  0  0  0
   -1.5875    1.3331    0.3517 H   0  0  0  0  0  0  0  0  0  0  0  0
   -4.0004    2.0515    0.9267 H   0  0  0  0  0  0  0  0  0  0  0  0
   -5.3376    0.9789    0.4732 H   0  0  0  0  0  0  0  0  0  0  0  0
   -4.4404    1.8514   -0.7784 H   0  0  0  0  0  0  0  0  0  0  0  0
   -2.8304    0.0639    2.1658 H   0  0  0  0  0  0  0  0  0  0  0  0
   -4.2621   -0.8843    1.7380 H   0  0  0  0  0  0  0  0  0  0  0  0
   -2.6603   -1.4846    1.3223 H   0  0  0  0  0  0  0  0  0  0  0  0
    0.9156   -2.2766    0.3274 H   0  0  0  0  0  0  0  0  0  0  0  0
    0.4286    1.8408   -0.8389 H   0  0  0  0  0  0  0  0  0  0  0  0
    3.2904   -1.7893    0.7773 H   0  0  0  0  0  0  0  0  0  0  0  0
    4.7811    1.4963    0.3246 H   0  0  0  0  0  0  0  0  0  0  0  0
    4.9256   -0.0139    1.1731 H   0  0  0  0  0  0  0  0  0  0  0  0
  1  8  2  0  0  0  0
  2 11  1  0  0  0  0
  2 13  2  0  0  0  0
  3 13  1  0  0  0  0
  3 26  1  0  0  0  0
  3 27  1  0  0  0  0
  4  5  1  0  0  0  0
  4  6  1  0  0  0  0
  4  7  1  0  0  0  0
  4 14  1  0  0  0  0
  5  8  1  0  0  0  0
  5 15  1  0  0  0  0
  5 16  1  0  0  0  0
  6 17  1  0  0  0  0
  6 18  1  0  0  0  0
  6 19  1  0  0  0  0
  7 20  1  0  0  0  0
  7 21  1  0  0  0  0
  7 22  1  0  0  0  0
  8  9  1  0  0  0  0
  9 10  1  0  0  0  0
  9 11  2  0  0  0  0
 10 12  2  0  0  0  0
 10 23  1  0  0  0  0
 11 24  1  0  0  0  0
 12 13  1  0  0  0  0
 12 25  1  0  0  0  0
M  END
>  <PUBCHEM_COMPOUND_CID>
58339434

>  <PUBCHEM_CONFORMER_RMSD>
0.6

>  <PUBCHEM_CONFORMER_DIVERSEORDER>
1
28
10
25
5
20
26
12
9
27
6
19
3
15
24
2
23
21
4
17
16
11
18
7
22
13
8
14

>  <PUBCHEM_MMFF94_PARTIAL_CHARGES>
15
1 -0.57
10 -0.15
11 0.16
12 -0.15
13 0.41
2 -0.62
23 0.15
24 0.15
25 0.15
26 0.4
27 0.4
3 -0.9
5 0.06
8 0.42
9 0.09

>  <PUBCHEM_EFFECTIVE_ROTOR_COUNT>
3

>  <PUBCHEM_PHARMACOPHORE_FEATURES>
5
1 1 acceptor
1 3 donor
3 2 3 13 cation
3 4 6 7 hydrophobe
6 2 9 10 11 12 13 rings

>  <PUBCHEM_HEAVY_ATOM_COUNT>
13

>  <PUBCHEM_ATOM_DEF_STEREO_COUNT>
0

>  <PUBCHEM_ATOM_UDEF_STEREO_COUNT>
0

>  <PUBCHEM_BOND_DEF_STEREO_COUNT>
0

>  <PUBCHEM_BOND_UDEF_STEREO_COUNT>
0

>  <PUBCHEM_ISOTOPIC_ATOM_COUNT>
0

>  <PUBCHEM_COMPONENT_COUNT>
1

>  <PUBCHEM_CACTVS_TAUTO_COUNT>
9

>  <PUBCHEM_CONFORMER_ID>
037A306A00000001

>  <PUBCHEM_MMFF94_ENERGY>
35.7688

>  <PUBCHEM_FEATURE_SELFOVERLAP>
25.371

>  <PUBCHEM_SHAPE_FINGERPRINT>
10219947 1 18342458101660335807
10465860 228 17843976840418924419
10980938 120 18409729538920692486
11471102 22 18114190743196376530
12251169 10 18261116287715062787
12500047 106 17131824408960009358
13214271 11 18186518830206420927
13675066 3 18410011048473354456
13705890 14 9799685995934787674
14144814 61 18341891887668854567
14325111 11 18411419505704425605
14897335 6 18201715158833776551
14943859 89 17060620005553195711
15309172 13 18272938206640731167
15775835 57 18273213097268838833
16945 1 18337378405574924278
17844478 74 17531242833623917060
18186145 218 17060072414582147069
200 152 18339912806037297887
20112054 13 18412825759517241973
20233049 118 17846777390760770592
20279233 1 17312819364557194383
20281407 28 15502373417902335347
20361792 2 13190346807145054883
20645477 70 18268140972699665119
20871998 22 18051126987334992542
20871999 31 11815896718007988721
22169311 14 17894354362964684609
22485316 2 15719387334832412953
23402539 116 17274813649573230157
2748010 2 17977371751432368300
465052 167 11964265946795347489
93112 12 11023823959778969891

>  <PUBCHEM_SHAPE_MULTIPOLES>
251.7
7.58
1.41
0.91
1.28
0.08
0.1
-2.13
2.2
0.03
-0.1
0.47
0.2
0.03

>  <PUBCHEM_SHAPE_SELFOVERLAP>
511.061

>  <PUBCHEM_SHAPE_VOLUME>
146.2

>  <PUBCHEM_COORDINATE_TYPE>
2
5
10

$$$$
