58367666
 OpenBabel01182520543D

 29 29  0  0  0  0  0  0  0  0999 V2000
   -0.1665    1.7859   -1.0232 O   0  0  0  0  0  0  0  0  0  0  0  0
    3.5732    0.1962    0.4855 N   0  0  0  0  0  0  0  0  0  0  0  0
    2.1369    2.0478    0.8452 N   0  0  0  0  0  0  0  0  0  0  0  0
    1.2804    0.0984   -0.2749 C   0  0  0  0  0  0  0  0  0  0  0  0
   -1.2301    0.0413    0.2023 C   0  0  0  0  0  0  0  0  0  0  0  0
   -0.0544    0.7219   -0.4228 C   0  0  0  0  0  0  0  0  0  0  0  0
   -2.4047    0.2283   -0.4278 C   0  0  0  0  0  0  0  0  0  0  0  0
    2.3440    0.7398    0.3394 C   0  0  0  0  0  0  0  0  0  0  0  0
    1.4917   -1.1832   -0.7710 C   0  0  0  0  0  0  0  0  0  0  0  0
   -1.0204   -0.6707    1.5055 C   0  0  0  0  0  0  0  0  0  0  0  0
   -3.7021   -0.2882   -0.0231 C   0  0  0  0  0  0  0  0  0  0  0  0
    2.7427   -1.7760   -0.6395 C   0  0  0  0  0  0  0  0  0  0  0  0
    3.7409   -1.0508   -0.0090 C   0  0  0  0  0  0  0  0  0  0  0  0
   -4.8629    0.6341   -0.2580 C   0  0  0  0  0  0  0  0  0  0  0  0
   -3.8686   -1.5248    0.4715 C   0  0  0  0  0  0  0  0  0  0  0  0
   -2.4374    0.8122   -1.3470 H   0  0  0  0  0  0  0  0  0  0  0  0
    0.6951   -1.7308   -1.2676 H   0  0  0  0  0  0  0  0  0  0  0  0
   -0.7221   -1.7099    1.3367 H   0  0  0  0  0  0  0  0  0  0  0  0
   -1.9123   -0.6570    2.1388 H   0  0  0  0  0  0  0  0  0  0  0  0
   -0.2370   -0.1817    2.0951 H   0  0  0  0  0  0  0  0  0  0  0  0
    2.9308   -2.7735   -1.0198 H   0  0  0  0  0  0  0  0  0  0  0  0
    4.7344   -1.4681    0.1185 H   0  0  0  0  0  0  0  0  0  0  0  0
   -4.7315    1.5666    0.3018 H   0  0  0  0  0  0  0  0  0  0  0  0
   -4.9567    0.8778   -1.3219 H   0  0  0  0  0  0  0  0  0  0  0  0
   -5.8113    0.1893    0.0627 H   0  0  0  0  0  0  0  0  0  0  0  0
    1.4647    2.6464    0.3819 H   0  0  0  0  0  0  0  0  0  0  0  0
    2.9308    2.4905    1.2918 H   0  0  0  0  0  0  0  0  0  0  0  0
   -4.8560   -1.8849    0.7444 H   0  0  0  0  0  0  0  0  0  0  0  0
   -3.0518   -2.2274    0.5927 H   0  0  0  0  0  0  0  0  0  0  0  0
  1  6  2  0  0  0  0
  2  8  1  0  0  0  0
  2 13  2  0  0  0  0
  3  8  1  0  0  0  0
  3 26  1  0  0  0  0
  3 27  1  0  0  0  0
  4  6  1  0  0  0  0
  4  8  2  0  0  0  0
  4  9  1  0  0  0  0
  5  6  1  0  0  0  0
  5  7  2  0  0  0  0
  5 10  1  0  0  0  0
  7 11  1  0  0  0  0
  7 16  1  0  0  0  0
  9 12  2  0  0  0  0
  9 17  1  0  0  0  0
 10 18  1  0  0  0  0
 10 19  1  0  0  0  0
 10 20  1  0  0  0  0
 11 14  1  0  0  0  0
 11 15  2  0  0  0  0
 12 13  1  0  0  0  0
 12 21  1  0  0  0  0
 13 22  1  0  0  0  0
 14 23  1  0  0  0  0
 14 24  1  0  0  0  0
 14 25  1  0  0  0  0
 15 28  1  0  0  0  0
 15 29  1  0  0  0  0
M  END
>  <PUBCHEM_COMPOUND_CID>
58367666

>  <PUBCHEM_CONFORMER_RMSD>
0.6

>  <PUBCHEM_CONFORMER_DIVERSEORDER>
1
33
27
22
29
32
18
15
20
31
6
21
19
28
23
25
8
34
7
12
9
2
17
5
26
30
24
11
14
3
13
16
10
4

>  <PUBCHEM_MMFF94_PARTIAL_CHARGES>
23
1 -0.57
10 0.14
11 -0.14
12 -0.15
13 0.16
14 0.14
15 -0.3
16 0.15
17 0.15
2 -0.62
21 0.15
22 0.15
26 0.4
27 0.4
28 0.15
29 0.15
3 -0.9
4 0.09
5 -0.12
6 0.47
7 -0.15
8 0.41
9 -0.15

>  <PUBCHEM_EFFECTIVE_ROTOR_COUNT>
3

>  <PUBCHEM_PHARMACOPHORE_FEATURES>
6
1 1 acceptor
1 10 hydrophobe
1 2 acceptor
1 3 cation
1 3 donor
6 2 4 8 9 12 13 rings

>  <PUBCHEM_HEAVY_ATOM_COUNT>
15

>  <PUBCHEM_ATOM_DEF_STEREO_COUNT>
0

>  <PUBCHEM_ATOM_UDEF_STEREO_COUNT>
0

>  <PUBCHEM_BOND_DEF_STEREO_COUNT>
1

>  <PUBCHEM_BOND_UDEF_STEREO_COUNT>
0

>  <PUBCHEM_ISOTOPIC_ATOM_COUNT>
0

>  <PUBCHEM_COMPONENT_COUNT>
1

>  <PUBCHEM_CACTVS_TAUTO_COUNT>
5

>  <PUBCHEM_CONFORMER_ID>
037A9EB200000001

>  <PUBCHEM_MMFF94_ENERGY>
55.1825

>  <PUBCHEM_FEATURE_SELFOVERLAP>
30.446

>  <PUBCHEM_SHAPE_FINGERPRINT>
10922523 26 18335701663406809375
11471102 20 18272647939617785932
11543360 7 12035734257986247977
12032990 46 18260833700146741071
12251169 10 18060697295013300686
13296908 3 18334015012374738863
13538477 17 16128362813861011044
13675066 3 18334298686733381817
13705890 14 18335704970178316051
14115302 16 16515975808485731898
14251717 144 18272651238058016118
14252887 29 18408609166499616467
14289901 80 17988921223513143875
15219456 202 18411415137432658545
15375358 24 18260829323332421491
15501101 241 18411982476916723956
16945 1 18201730569429466538
17834072 14 18408887351710797731
18175812 5 18411417327966148103
18186145 218 17967526874772972749
19026448 4 18411417336893621171
19141452 34 18411138039776884383
200 152 17775000168103661927
20201158 50 18408325462593284010
20279233 1 18410014338576740591
20374829 77 18187927240056156434
20645477 70 18201998798727400639
20871998 22 17915467103737282654
22485316 2 18334857203784882775
23402539 116 18040708164882731263
23532345 42 18187643647712926580
23559900 14 18040436586133156150
26918003 58 18273211980540613643
276578 36 13901912193646622772
296302 2 18260271883858925172
31174 14 18343012303219185608
3286 77 18342736304130416696
474 4 16126942296810114314
5104073 3 18411702114753067211
57812782 119 18411135831525247651
581208 293 18342736342774618382
633830 44 17386006191523102911
69090 78 18412539925344164607
81228 2 17896611582626761949
9709674 26 18336269062804418083

>  <PUBCHEM_SHAPE_MULTIPOLES>
292.86
7.95
1.68
0.99
5.5
0.15
-0.17
-1.62
-0.11
-0.78
0.05
0
-0.01
0.9

>  <PUBCHEM_SHAPE_SELFOVERLAP>
606.476

>  <PUBCHEM_SHAPE_VOLUME>
167

>  <PUBCHEM_COORDINATE_TYPE>
2
5
10

$$$$
