58772613
 OpenBabel01182520543D

 22 22  0  0  0  0  0  0  0  0999 V2000
    1.3916   -1.9538   -0.3398 O   0  0  0  0  0  0  0  0  0  0  0  0
   -2.0372    1.3455   -0.1494 N   0  0  0  0  0  0  0  0  0  0  0  0
    1.9345    0.2684   -0.6857 N   0  0  0  0  0  0  0  0  0  0  0  0
   -4.3011    0.7639    0.3123 N   0  0  0  0  0  0  0  0  0  0  0  0
    3.9115    1.4737   -0.0253 N   0  0  0  0  0  0  0  0  0  0  0  0
    3.1414   -0.2665    1.2327 N   0  0  0  0  0  0  0  0  0  0  0  0
   -0.3532   -0.3881   -0.2101 C   0  0  0  0  0  0  0  0  0  0  0  0
   -1.3184   -1.3462    0.0794 C   0  0  0  0  0  0  0  0  0  0  0  0
   -2.6426   -0.9600    0.2546 C   0  0  0  0  0  0  0  0  0  0  0  0
   -0.7603    0.9322   -0.3130 C   0  0  0  0  0  0  0  0  0  0  0  0
   -2.9475    0.3860    0.1309 C   0  0  0  0  0  0  0  0  0  0  0  0
    1.0382   -0.7599   -0.3987 C   0  0  0  0  0  0  0  0  0  0  0  0
    2.9431    0.5047    0.1120 C   0  0  0  0  0  0  0  0  0  0  0  0
   -1.0621   -2.3979    0.1738 H   0  0  0  0  0  0  0  0  0  0  0  0
   -3.4013   -1.7019    0.4815 H   0  0  0  0  0  0  0  0  0  0  0  0
   -0.0719    1.7410   -0.5362 H   0  0  0  0  0  0  0  0  0  0  0  0
   -5.0233    0.0879    0.0955 H   0  0  0  0  0  0  0  0  0  0  0  0
   -4.5203    1.7476    0.2149 H   0  0  0  0  0  0  0  0  0  0  0  0
    3.9003    2.1175   -0.8089 H   0  0  0  0  0  0  0  0  0  0  0  0
    4.6597    1.5752    0.6517 H   0  0  0  0  0  0  0  0  0  0  0  0
    2.5257   -1.0301    1.4881 H   0  0  0  0  0  0  0  0  0  0  0  0
    3.9237   -0.0894    1.8539 H   0  0  0  0  0  0  0  0  0  0  0  0
  1 12  2  0  0  0  0
  2 10  1  0  0  0  0
  2 11  2  0  0  0  0
  3 12  1  0  0  0  0
  3 13  2  0  0  0  0
  4 11  1  0  0  0  0
  4 17  1  0  0  0  0
  4 18  1  0  0  0  0
  5 13  1  0  0  0  0
  5 19  1  0  0  0  0
  5 20  1  0  0  0  0
  6 13  1  0  0  0  0
  6 21  1  0  0  0  0
  6 22  1  0  0  0  0
  7  8  1  0  0  0  0
  7 10  2  0  0  0  0
  7 12  1  0  0  0  0
  8  9  2  0  0  0  0
  8 14  1  0  0  0  0
  9 11  1  0  0  0  0
  9 15  1  0  0  0  0
 10 16  1  0  0  0  0
M  END
>  <PUBCHEM_COMPOUND_CID>
58772613

>  <PUBCHEM_CONFORMER_RMSD>
0.6

>  <PUBCHEM_CONFORMER_DIVERSEORDER>
1
5
11
9
8
4
12
6
10
7
3
2

>  <PUBCHEM_MMFF94_PARTIAL_CHARGES>
22
1 -0.57
10 0.16
11 0.41
12 0.69
13 0.55
14 0.15
15 0.15
16 0.15
17 0.4
18 0.4
19 0.4
2 -0.62
20 0.4
21 0.4
22 0.4
3 -0.66
4 -0.9
5 -0.85
6 -0.85
7 0.09
8 -0.15
9 -0.15

>  <PUBCHEM_EFFECTIVE_ROTOR_COUNT>
2

>  <PUBCHEM_PHARMACOPHORE_FEATURES>
7
1 1 acceptor
1 3 donor
1 4 donor
1 5 donor
1 6 donor
3 2 4 11 cation
6 2 7 8 9 10 11 rings

>  <PUBCHEM_HEAVY_ATOM_COUNT>
13

>  <PUBCHEM_ATOM_DEF_STEREO_COUNT>
0

>  <PUBCHEM_ATOM_UDEF_STEREO_COUNT>
0

>  <PUBCHEM_BOND_DEF_STEREO_COUNT>
0

>  <PUBCHEM_BOND_UDEF_STEREO_COUNT>
0

>  <PUBCHEM_ISOTOPIC_ATOM_COUNT>
0

>  <PUBCHEM_COMPONENT_COUNT>
1

>  <PUBCHEM_CACTVS_TAUTO_COUNT>
14

>  <PUBCHEM_CONFORMER_ID>
0380CC8500000001

>  <PUBCHEM_MMFF94_ENERGY>
50.6553

>  <PUBCHEM_FEATURE_SELFOVERLAP>
35.653

>  <PUBCHEM_SHAPE_FINGERPRINT>
10608611 8 18338797814566756037
11031198 65 17561083592308062492
11132069 177 18409447011529353181
11543360 7 15554154931198177717
11769659 78 10737290168549620185
12251169 10 18113896074407283808
12382932 28 18409453591640712435
12932764 1 17385718084816291334
13214271 11 18338517542507747543
13380535 76 18410855460313226423
14325111 11 18411138056386742398
14897335 6 18412823569099842815
15219456 202 18342183240938750150
15775835 57 18410012169438791216
16945 1 18409176519116191543
17846911 113 18341608205221528073
18186145 218 18057050107838875453
20525323 117 18411415150433793551
20528008 55 18411979152796373669
20871998 184 18198913689332805311
21119208 17 13470693654633956000
23402539 116 18335409193356103479
23463225 33 18260264161745168780
23559900 14 18341333280138801494
2748010 2 18118972382206409677
369184 2 17240479217204993247
449060 50 18412833486290001449
449060 62 18272938193470784709
53812653 166 18343864428677422465
6333449 129 18342173405859073311
7364860 26 18198908011338560678
8030462 33 12967132679188423055

>  <PUBCHEM_SHAPE_MULTIPOLES>
236.76
6.51
1.53
0.76
0.68
0.27
-0.09
-2.45
-1.25
0.08
0.1
0.33
0.05
0.01

>  <PUBCHEM_SHAPE_SELFOVERLAP>
495.775

>  <PUBCHEM_SHAPE_VOLUME>
131.1

>  <PUBCHEM_COORDINATE_TYPE>
2
5
10

$$$$
