58772636
 OpenBabel01182520543D

 27 27  0  0  0  0  0  0  0  0999 V2000
   -3.7411    1.1503    0.0823 O   0  0  0  0  0  0  0  0  0  0  0  0
   -0.7220   -2.0407   -0.6931 O   0  0  0  0  0  0  0  0  0  0  0  0
   -1.4439   -0.4164    0.7960 N   0  0  0  0  0  0  0  0  0  0  0  0
    3.2350   -0.7294   -0.2998 N   0  0  0  0  0  0  0  0  0  0  0  0
    4.6823    1.1434   -0.0260 N   0  0  0  0  0  0  0  0  0  0  0  0
   -2.8027   -0.8936    0.9190 C   0  0  0  0  0  0  0  0  0  0  0  0
   -3.7129   -0.2572   -0.1154 C   0  0  0  0  0  0  0  0  0  0  0  0
    0.8520   -0.4424   -0.0102 C   0  0  0  0  0  0  0  0  0  0  0  0
   -0.4773   -1.0277   -0.0123 C   0  0  0  0  0  0  0  0  0  0  0  0
    1.0409    0.9068    0.2683 C   0  0  0  0  0  0  0  0  0  0  0  0
    1.9717   -1.2107   -0.2854 C   0  0  0  0  0  0  0  0  0  0  0  0
    2.3256    1.4388    0.2629 C   0  0  0  0  0  0  0  0  0  0  0  0
    3.3794    0.5863   -0.0244 C   0  0  0  0  0  0  0  0  0  0  0  0
   -4.5870    1.7926   -0.8618 C   0  0  0  0  0  0  0  0  0  0  0  0
   -3.1339   -0.6320    1.9295 H   0  0  0  0  0  0  0  0  0  0  0  0
   -2.8139   -1.9833    0.8165 H   0  0  0  0  0  0  0  0  0  0  0  0
   -4.7258   -0.6616   -0.0074 H   0  0  0  0  0  0  0  0  0  0  0  0
   -3.3511   -0.4766   -1.1271 H   0  0  0  0  0  0  0  0  0  0  0  0
   -1.1931    0.3790    1.3734 H   0  0  0  0  0  0  0  0  0  0  0  0
    0.2129    1.5809    0.4659 H   0  0  0  0  0  0  0  0  0  0  0  0
    1.8962   -2.2710   -0.5070 H   0  0  0  0  0  0  0  0  0  0  0  0
    2.4805    2.4920    0.4737 H   0  0  0  0  0  0  0  0  0  0  0  0
   -4.5713    2.8674   -0.6626 H   0  0  0  0  0  0  0  0  0  0  0  0
   -5.6160    1.4340   -0.7617 H   0  0  0  0  0  0  0  0  0  0  0  0
   -4.2250    1.6212   -1.8802 H   0  0  0  0  0  0  0  0  0  0  0  0
    4.7864    2.1252   -0.2507 H   0  0  0  0  0  0  0  0  0  0  0  0
    5.4488    0.5182   -0.2426 H   0  0  0  0  0  0  0  0  0  0  0  0
  1  7  1  0  0  0  0
  1 14  1  0  0  0  0
  2  9  2  0  0  0  0
  3  6  1  0  0  0  0
  3  9  1  0  0  0  0
  3 19  1  0  0  0  0
  4 11  1  0  0  0  0
  4 13  2  0  0  0  0
  5 13  1  0  0  0  0
  5 26  1  0  0  0  0
  5 27  1  0  0  0  0
  6  7  1  0  0  0  0
  6 15  1  0  0  0  0
  6 16  1  0  0  0  0
  7 17  1  0  0  0  0
  7 18  1  0  0  0  0
  8  9  1  0  0  0  0
  8 10  1  0  0  0  0
  8 11  2  0  0  0  0
 10 12  2  0  0  0  0
 10 20  1  0  0  0  0
 11 21  1  0  0  0  0
 12 13  1  0  0  0  0
 12 22  1  0  0  0  0
 14 23  1  0  0  0  0
 14 24  1  0  0  0  0
 14 25  1  0  0  0  0
M  END
>  <PUBCHEM_COMPOUND_CID>
58772636

>  <PUBCHEM_CONFORMER_RMSD>
0.6

>  <PUBCHEM_CONFORMER_DIVERSEORDER>
2
3
32
37
25
54
55
35
30
34
16
11
18
29
41
53
28
23
33
26
4
38
56
20
17
59
47
31
27
15
1
42
6
36
24
58
50
13
19
8
5
52
43
12
57
14
46
49
9
21
45
10
48
7
51
60
40
44
39
22

>  <PUBCHEM_MMFF94_PARTIAL_CHARGES>
20
1 -0.56
10 -0.15
11 0.16
12 -0.15
13 0.41
14 0.28
19 0.37
2 -0.57
20 0.15
21 0.15
22 0.15
26 0.4
27 0.4
3 -0.73
4 -0.62
5 -0.9
6 0.3
7 0.28
8 0.09
9 0.54

>  <PUBCHEM_EFFECTIVE_ROTOR_COUNT>
5

>  <PUBCHEM_PHARMACOPHORE_FEATURES>
6
1 1 acceptor
1 2 acceptor
1 3 donor
1 5 donor
3 4 5 13 cation
6 4 8 10 11 12 13 rings

>  <PUBCHEM_HEAVY_ATOM_COUNT>
14

>  <PUBCHEM_ATOM_DEF_STEREO_COUNT>
0

>  <PUBCHEM_ATOM_UDEF_STEREO_COUNT>
0

>  <PUBCHEM_BOND_DEF_STEREO_COUNT>
0

>  <PUBCHEM_BOND_UDEF_STEREO_COUNT>
0

>  <PUBCHEM_ISOTOPIC_ATOM_COUNT>
0

>  <PUBCHEM_COMPONENT_COUNT>
1

>  <PUBCHEM_CACTVS_TAUTO_COUNT>
7

>  <PUBCHEM_CONFORMER_ID>
0380CC9C00000002

>  <PUBCHEM_MMFF94_ENERGY>
38.4633

>  <PUBCHEM_FEATURE_SELFOVERLAP>
30.446

>  <PUBCHEM_SHAPE_FINGERPRINT>
10608611 8 18410012182170757737
11471102 20 18343022181633118150
11543360 7 13901906734632413032
12500047 106 18340203093601162362
13922767 16 18413386523200330514
14123255 352 18187641384613769733
14897335 6 18202002174492463026
14993402 34 16988847193706447564
17834072 8 18340774754090924270
18186145 218 18131082523317709523
20233049 118 18410575110823727648
20281475 54 10015568541839684979
20645477 56 18334862727571417185
20645477 70 18130795512102170670
231179 274 18410858767553647092
23402539 116 18130781269895340100
23402655 69 18202562856608180653
23559900 14 17489313048969158712
4028521 119 18262230020296508941
548570 60 18408038503133324877
6430166 295 18408319990678224864
83771 10 9295283950329533377

>  <PUBCHEM_SHAPE_MULTIPOLES>
261.43
8.61
1.8
0.8
3.1
0.12
-0.03
4.66
0.92
0.64
0.29
0.43
-0.05
0.82

>  <PUBCHEM_SHAPE_SELFOVERLAP>
529.807

>  <PUBCHEM_SHAPE_VOLUME>
152.2

>  <PUBCHEM_COORDINATE_TYPE>
2
5
10

$$$$
