58772608
 OpenBabel01182520543D

 31 31  0  0  0  0  0  0  0  0999 V2000
   -0.2557   -1.5012   -1.1097 O   0  0  0  0  0  0  0  0  0  0  0  0
   -4.4039    0.2295   -0.0909 N   0  0  0  0  0  0  0  0  0  0  0  0
   -0.7526    0.7066   -0.6000 N   0  0  0  0  0  0  0  0  0  0  0  0
    3.5676   -1.1023    0.5498 N   0  0  0  0  0  0  0  0  0  0  0  0
    5.4457    0.3275    0.8751 N   0  0  0  0  0  0  0  0  0  0  0  0
   -2.9911    0.2525    0.2653 C   0  0  0  0  0  0  0  0  0  0  0  0
   -2.1489    0.6507   -0.9377 C   0  0  0  0  0  0  0  0  0  0  0  0
   -5.2254   -0.1136    1.0618 C   0  0  0  0  0  0  0  0  0  0  0  0
    0.0921   -0.3912   -0.7157 C   0  0  0  0  0  0  0  0  0  0  0  0
    1.5026   -0.1772   -0.3014 C   0  0  0  0  0  0  0  0  0  0  0  0
   -6.7007   -0.1298    0.6991 C   0  0  0  0  0  0  0  0  0  0  0  0
    2.0844    1.0843   -0.3624 C   0  0  0  0  0  0  0  0  0  0  0  0
    2.2799   -1.2282    0.1579 C   0  0  0  0  0  0  0  0  0  0  0  0
    3.4069    1.2537    0.0322 C   0  0  0  0  0  0  0  0  0  0  0  0
    4.0991    0.1387    0.4766 C   0  0  0  0  0  0  0  0  0  0  0  0
   -2.6730   -0.7332    0.6278 H   0  0  0  0  0  0  0  0  0  0  0  0
   -2.8167    0.9698    1.0772 H   0  0  0  0  0  0  0  0  0  0  0  0
   -2.4327    1.6465   -1.2961 H   0  0  0  0  0  0  0  0  0  0  0  0
   -2.2902   -0.0583   -1.7617 H   0  0  0  0  0  0  0  0  0  0  0  0
   -4.5611   -0.4430   -0.8410 H   0  0  0  0  0  0  0  0  0  0  0  0
   -4.9466   -1.1005    1.4498 H   0  0  0  0  0  0  0  0  0  0  0  0
   -5.0734    0.6172    1.8647 H   0  0  0  0  0  0  0  0  0  0  0  0
   -0.4129    1.5780   -0.2072 H   0  0  0  0  0  0  0  0  0  0  0  0
   -7.0284    0.8491    0.3332 H   0  0  0  0  0  0  0  0  0  0  0  0
   -6.9096   -0.8735   -0.0772 H   0  0  0  0  0  0  0  0  0  0  0  0
   -7.3037   -0.3809    1.5777 H   0  0  0  0  0  0  0  0  0  0  0  0
    1.5495    1.9521   -0.7363 H   0  0  0  0  0  0  0  0  0  0  0  0
    1.8866   -2.2372    0.2343 H   0  0  0  0  0  0  0  0  0  0  0  0
    3.8695    2.2341   -0.0176 H   0  0  0  0  0  0  0  0  0  0  0  0
    5.9732    1.0799    0.4496 H   0  0  0  0  0  0  0  0  0  0  0  0
    5.9495   -0.4911    1.1932 H   0  0  0  0  0  0  0  0  0  0  0  0
  1  9  2  0  0  0  0
  2  6  1  0  0  0  0
  2  8  1  0  0  0  0
  2 20  1  0  0  0  0
  3  7  1  0  0  0  0
  3  9  1  0  0  0  0
  3 23  1  0  0  0  0
  4 13  1  0  0  0  0
  4 15  2  0  0  0  0
  5 15  1  0  0  0  0
  5 30  1  0  0  0  0
  5 31  1  0  0  0  0
  6  7  1  0  0  0  0
  6 16  1  0  0  0  0
  6 17  1  0  0  0  0
  7 18  1  0  0  0  0
  7 19  1  0  0  0  0
  8 11  1  0  0  0  0
  8 21  1  0  0  0  0
  8 22  1  0  0  0  0
  9 10  1  0  0  0  0
 10 12  1  0  0  0  0
 10 13  2  0  0  0  0
 11 24  1  0  0  0  0
 11 25  1  0  0  0  0
 11 26  1  0  0  0  0
 12 14  2  0  0  0  0
 12 27  1  0  0  0  0
 13 28  1  0  0  0  0
 14 15  1  0  0  0  0
 14 29  1  0  0  0  0
M  END
>  <PUBCHEM_COMPOUND_CID>
58772608

>  <PUBCHEM_CONFORMER_RMSD>
0.8

>  <PUBCHEM_CONFORMER_DIVERSEORDER>
2
30
29
6
11
12
13
31
17
22
15
19
33
32
21
7
36
35
23
16
37
38
8
28
14
24
27
26
3
4
18
5
10
34
1
9
25
20

>  <PUBCHEM_MMFF94_PARTIAL_CHARGES>
21
1 -0.57
10 0.09
12 -0.15
13 0.16
14 -0.15
15 0.41
2 -0.9
20 0.36
23 0.37
27 0.15
28 0.15
29 0.15
3 -0.73
30 0.4
31 0.4
4 -0.62
5 -0.9
6 0.27
7 0.3
8 0.27
9 0.54

>  <PUBCHEM_EFFECTIVE_ROTOR_COUNT>
6

>  <PUBCHEM_PHARMACOPHORE_FEATURES>
7
1 1 acceptor
1 2 cation
1 2 donor
1 3 donor
1 5 donor
3 4 5 15 cation
6 4 10 12 13 14 15 rings

>  <PUBCHEM_HEAVY_ATOM_COUNT>
15

>  <PUBCHEM_ATOM_DEF_STEREO_COUNT>
0

>  <PUBCHEM_ATOM_UDEF_STEREO_COUNT>
0

>  <PUBCHEM_BOND_DEF_STEREO_COUNT>
0

>  <PUBCHEM_BOND_UDEF_STEREO_COUNT>
0

>  <PUBCHEM_ISOTOPIC_ATOM_COUNT>
0

>  <PUBCHEM_COMPONENT_COUNT>
1

>  <PUBCHEM_CACTVS_TAUTO_COUNT>
7

>  <PUBCHEM_CONFORMER_ID>
0380CC8000000002

>  <PUBCHEM_MMFF94_ENERGY>
26.7041

>  <PUBCHEM_FEATURE_SELFOVERLAP>
35.522

>  <PUBCHEM_SHAPE_FINGERPRINT>
100836 57 15698282217838002505
10354089 29 18343585144334453800
12251169 10 18408603673315442687
12670543 26 9943536214503639273
12714333 28 12895352196482487960
12916748 109 17489875924969236552
13668630 136 12973605525911460785
14252887 29 18334581196122139818
14848160 23 17385442137921257651
14911166 2 9079113362696274085
15048467 5 13830129503180064272
15183329 4 11025786614411210011
15242439 84 11455886975145675397
17834072 8 10231756695214205361
18222031 100 14201398283106035118
20369508 70 12396303689756195047
20645477 56 14333406753381370461
20871999 31 12535329213196617133
21267235 1 18336547119551234658
212847 35 15123793954998218822
21637258 2 14490457665877928112
22224240 67 18273212019685988035
23402539 116 16588019113752697439
26918003 58 18040437702872054593
2871803 45 9295297157454422732
351380 3 14129060335589648385
4047638 21 17632295688080255188
42 15 17821729425037168589
5104073 3 18190730947694480224
522135 26 10015586086211565349
5374978 207 18259705601232610065
59755656 520 16917063360926210975

>  <PUBCHEM_SHAPE_MULTIPOLES>
282.9
13.19
1.17
0.98
16.51
0.1
-0.05
0.11
6.16
-0.92
-0.14
0.28
0.09
0.2

>  <PUBCHEM_SHAPE_SELFOVERLAP>
566.981

>  <PUBCHEM_SHAPE_VOLUME>
165.7

>  <PUBCHEM_COORDINATE_TYPE>
2
5
10

$$$$
