58772630
 OpenBabel01182520543D

 37 38  0  0  0  0  0  0  0  0999 V2000
    0.6396    1.7307    0.3055 O   0  0  0  0  0  0  0  0  0  0  0  0
   -3.3779   -0.4845    0.0925 N   0  0  0  0  0  0  0  0  0  0  0  0
   -6.0797    0.3771   -0.5061 N   0  0  0  0  0  0  0  0  0  0  0  0
    0.2786   -0.5105    0.7829 N   0  0  0  0  0  0  0  0  0  0  0  0
    4.4350   -1.0840    0.5352 N   0  0  0  0  0  0  0  0  0  0  0  0
    6.4837   -0.5602   -0.5624 N   0  0  0  0  0  0  0  0  0  0  0  0
   -3.7685    0.9269    0.2025 C   0  0  0  0  0  0  0  0  0  0  0  0
   -4.1856   -1.1661   -0.9272 C   0  0  0  0  0  0  0  0  0  0  0  0
   -5.2636    1.0534    0.5048 C   0  0  0  0  0  0  0  0  0  0  0  0
   -5.6784   -1.0270   -0.6184 C   0  0  0  0  0  0  0  0  0  0  0  0
   -1.9526   -0.6075   -0.2060 C   0  0  0  0  0  0  0  0  0  0  0  0
   -1.1285   -0.4031    1.0568 C   0  0  0  0  0  0  0  0  0  0  0  0
    1.0590    0.5824    0.4242 C   0  0  0  0  0  0  0  0  0  0  0  0
    2.4912    0.3007    0.1485 C   0  0  0  0  0  0  0  0  0  0  0  0
    3.2273    1.1058   -0.7138 C   0  0  0  0  0  0  0  0  0  0  0  0
    3.1359   -0.7723    0.7426 C   0  0  0  0  0  0  0  0  0  0  0  0
    4.5664    0.8171   -0.9524 C   0  0  0  0  0  0  0  0  0  0  0  0
    5.1182   -0.2790   -0.3091 C   0  0  0  0  0  0  0  0  0  0  0  0
   -3.2268    1.4230    1.0145 H   0  0  0  0  0  0  0  0  0  0  0  0
   -3.5367    1.4706   -0.7235 H   0  0  0  0  0  0  0  0  0  0  0  0
   -3.9745   -0.7611   -1.9262 H   0  0  0  0  0  0  0  0  0  0  0  0
   -3.9387   -2.2345   -0.9470 H   0  0  0  0  0  0  0  0  0  0  0  0
   -5.4860    0.6458    1.4992 H   0  0  0  0  0  0  0  0  0  0  0  0
   -5.5378    2.1140    0.5257 H   0  0  0  0  0  0  0  0  0  0  0  0
   -6.2568   -1.4953   -1.4223 H   0  0  0  0  0  0  0  0  0  0  0  0
   -5.9260   -1.5618    0.3074 H   0  0  0  0  0  0  0  0  0  0  0  0
   -1.7304   -1.6175   -0.5774 H   0  0  0  0  0  0  0  0  0  0  0  0
   -1.6423    0.0817   -1.0025 H   0  0  0  0  0  0  0  0  0  0  0  0
   -7.0629    0.4305   -0.2420 H   0  0  0  0  0  0  0  0  0  0  0  0
   -1.3099    0.5749    1.5125 H   0  0  0  0  0  0  0  0  0  0  0  0
   -1.3702   -1.1692    1.8023 H   0  0  0  0  0  0  0  0  0  0  0  0
    0.6772   -1.4431    0.8019 H   0  0  0  0  0  0  0  0  0  0  0  0
    2.7732    1.9587   -1.2108 H   0  0  0  0  0  0  0  0  0  0  0  0
    2.6450   -1.4335    1.4488 H   0  0  0  0  0  0  0  0  0  0  0  0
    5.1470    1.4408   -1.6243 H   0  0  0  0  0  0  0  0  0  0  0  0
    6.8761   -0.2807   -1.4531 H   0  0  0  0  0  0  0  0  0  0  0  0
    6.8810   -1.3657   -0.0951 H   0  0  0  0  0  0  0  0  0  0  0  0
  1 13  2  0  0  0  0
  2  7  1  0  0  0  0
  2  8  1  0  0  0  0
  2 11  1  0  0  0  0
  3  9  1  0  0  0  0
  3 10  1  0  0  0  0
  3 29  1  0  0  0  0
  4 12  1  0  0  0  0
  4 13  1  0  0  0  0
  4 32  1  0  0  0  0
  5 16  1  0  0  0  0
  5 18  2  0  0  0  0
  6 18  1  0  0  0  0
  6 36  1  0  0  0  0
  6 37  1  0  0  0  0
  7  9  1  0  0  0  0
  7 19  1  0  0  0  0
  7 20  1  0  0  0  0
  8 10  1  0  0  0  0
  8 21  1  0  0  0  0
  8 22  1  0  0  0  0
  9 23  1  0  0  0  0
  9 24  1  0  0  0  0
 10 25  1  0  0  0  0
 10 26  1  0  0  0  0
 11 12  1  0  0  0  0
 11 27  1  0  0  0  0
 11 28  1  0  0  0  0
 12 30  1  0  0  0  0
 12 31  1  0  0  0  0
 13 14  1  0  0  0  0
 14 15  1  0  0  0  0
 14 16  2  0  0  0  0
 15 17  2  0  0  0  0
 15 33  1  0  0  0  0
 16 34  1  0  0  0  0
 17 18  1  0  0  0  0
 17 35  1  0  0  0  0
M  END
>  <PUBCHEM_COMPOUND_CID>
58772630

>  <PUBCHEM_CONFORMER_RMSD>
0.8

>  <PUBCHEM_CONFORMER_DIVERSEORDER>
1
44
14
23
30
43
8
46
49
45
32
5
38
2
35
20
29
15
39
34
18
22
33
42
24
25
40
31
48
41
28
17
11
7
26
6
27
19
13
4
21
12
36
9
47
3
10
16
37

>  <PUBCHEM_MMFF94_PARTIAL_CHARGES>
25
1 -0.57
10 0.27
11 0.27
12 0.3
13 0.54
14 0.09
15 -0.15
16 0.16
17 -0.15
18 0.41
2 -0.81
29 0.36
3 -0.9
32 0.37
33 0.15
34 0.15
35 0.15
36 0.4
37 0.4
4 -0.73
5 -0.62
6 -0.9
7 0.27
8 0.27
9 0.27

>  <PUBCHEM_EFFECTIVE_ROTOR_COUNT>
6.2

>  <PUBCHEM_PHARMACOPHORE_FEATURES>
9
1 1 acceptor
1 2 cation
1 3 cation
1 3 donor
1 4 donor
1 6 donor
3 5 6 18 cation
6 2 3 7 8 9 10 rings
6 5 14 15 16 17 18 rings

>  <PUBCHEM_HEAVY_ATOM_COUNT>
18

>  <PUBCHEM_ATOM_DEF_STEREO_COUNT>
0

>  <PUBCHEM_ATOM_UDEF_STEREO_COUNT>
0

>  <PUBCHEM_BOND_DEF_STEREO_COUNT>
0

>  <PUBCHEM_BOND_UDEF_STEREO_COUNT>
0

>  <PUBCHEM_ISOTOPIC_ATOM_COUNT>
0

>  <PUBCHEM_COMPONENT_COUNT>
1

>  <PUBCHEM_CACTVS_TAUTO_COUNT>
7

>  <PUBCHEM_CONFORMER_ID>
0380CC9600000001

>  <PUBCHEM_MMFF94_ENERGY>
39.1691

>  <PUBCHEM_FEATURE_SELFOVERLAP>
45.673

>  <PUBCHEM_SHAPE_FINGERPRINT>
10354089 29 9727635003863051854
10613725 11 18409167709805944867
106641 1 10735867362392028014
10803635 8 17632576050576118527
11315181 36 17418378008293470619
11796584 16 17275105032912976886
12107183 9 17688305686255995569
12236239 1 18413108359479894160
12730499 353 16009032769959777458
12916748 109 15430033240643625214
13288520 33 17989205954301865937
13533116 47 17313375687703093986
13668630 136 18060706091301722878
1420 363 14979960280427074838
14251731 8 17989204846047329311
14251752 14 18411135797023058532
14848160 23 15626222416160523607
15048467 5 17095527309697349758
15183329 4 18410291393794512455
15788980 27 16056876944653250081
17834072 33 18410291436728341637
17834072 8 17967817149958409254
17844677 252 17275106154310670681
18222031 100 17275395317569042824
19489759 90 16845576396607115441
200 152 18411703179894341400
20612939 158 18041284352316002468
20645477 56 15502373452230555251
20645477 70 18040996207439801506
21033648 29 16081354298343959429
21267235 1 18341051904663412435
221357 26 18040710368290878629
22224240 67 9295285028018515997
23402539 116 18272931618086987597
23402655 69 18114465647305829154
23536379 177 18413389830151055483
23559900 14 17560509711510009561
26918003 58 14476961207395732375
2916195 48 13407082534869612478
29717793 49 18342746204536339054
3004659 81 18410012131074164270
3014965 18 16805874100943210370
314173 85 14907907084683617275
3545911 37 16443067205132184802
474229 33 9655573006882642193
522135 26 17967811648284612322
5283173 99 14332859123502558907
542803 24 17967812751975149691
559249 180 18131631171304523871
59682541 35 12319442304132286022
59755656 215 17561086873431358399
59755656 520 17095525102211092011
960060 61 18409172129780888876

>  <PUBCHEM_SHAPE_MULTIPOLES>
339.66
16.05
1.29
0.96
3.26
0.19
0.01
-1.58
4.01
0.36
0.04
-0.08
-0.07
-1.04

>  <PUBCHEM_SHAPE_SELFOVERLAP>
697.397

>  <PUBCHEM_SHAPE_VOLUME>
193.9

>  <PUBCHEM_COORDINATE_TYPE>
2
5
10

$$$$
