58772603
 OpenBabel01182520543D

 29 30  0  0  0  0  0  0  0  0999 V2000
   -0.5696    2.3717   -0.4228 O   0  0  0  0  0  0  0  0  0  0  0  0
   -1.5753    0.3656    0.2325 N   0  0  0  0  0  0  0  0  0  0  0  0
   -3.8911   -1.3112    0.0875 N   0  0  0  0  0  0  0  0  0  0  0  0
    2.8738    0.1127    1.1420 N   0  0  0  0  0  0  0  0  0  0  0  0
    4.6634   -1.0236    0.0542 N   0  0  0  0  0  0  0  0  0  0  0  0
   -1.4867   -1.0512    0.6069 C   0  0  0  0  0  0  0  0  0  0  0  0
   -2.9169    0.9401    0.3233 C   0  0  0  0  0  0  0  0  0  0  0  0
   -2.5552   -1.8773   -0.1081 C   0  0  0  0  0  0  0  0  0  0  0  0
   -3.9426    0.0698   -0.3963 C   0  0  0  0  0  0  0  0  0  0  0  0
   -0.4961    1.1844   -0.1089 C   0  0  0  0  0  0  0  0  0  0  0  0
    0.8516    0.6000   -0.0901 C   0  0  0  0  0  0  0  0  0  0  0  0
    1.3881   -0.0016   -1.2231 C   0  0  0  0  0  0  0  0  0  0  0  0
    1.6281    0.6310    1.0570 C   0  0  0  0  0  0  0  0  0  0  0  0
    2.6666   -0.5463   -1.1748 C   0  0  0  0  0  0  0  0  0  0  0  0
    3.3619   -0.4641    0.0208 C   0  0  0  0  0  0  0  0  0  0  0  0
   -1.6285   -1.1019    1.6935 H   0  0  0  0  0  0  0  0  0  0  0  0
   -0.5006   -1.4664    0.3884 H   0  0  0  0  0  0  0  0  0  0  0  0
   -2.9326    1.9533   -0.0912 H   0  0  0  0  0  0  0  0  0  0  0  0
   -3.1610    1.0199    1.3898 H   0  0  0  0  0  0  0  0  0  0  0  0
   -2.3309   -1.9333   -1.1806 H   0  0  0  0  0  0  0  0  0  0  0  0
   -2.5398   -2.9017    0.2793 H   0  0  0  0  0  0  0  0  0  0  0  0
   -4.9461    0.4731   -0.2238 H   0  0  0  0  0  0  0  0  0  0  0  0
   -3.7651    0.0912   -1.4787 H   0  0  0  0  0  0  0  0  0  0  0  0
   -4.5725   -1.8724   -0.4227 H   0  0  0  0  0  0  0  0  0  0  0  0
    0.8180   -0.0514   -2.1468 H   0  0  0  0  0  0  0  0  0  0  0  0
    1.2631    1.0866    1.9726 H   0  0  0  0  0  0  0  0  0  0  0  0
    3.0918   -1.0170   -2.0552 H   0  0  0  0  0  0  0  0  0  0  0  0
    4.8728   -1.7937   -0.5690 H   0  0  0  0  0  0  0  0  0  0  0  0
    5.1653   -0.9667    0.9317 H   0  0  0  0  0  0  0  0  0  0  0  0
  1 10  2  0  0  0  0
  2  6  1  0  0  0  0
  2  7  1  0  0  0  0
  2 10  1  0  0  0  0
  3  8  1  0  0  0  0
  3  9  1  0  0  0  0
  3 24  1  0  0  0  0
  4 13  1  0  0  0  0
  4 15  2  0  0  0  0
  5 15  1  0  0  0  0
  5 28  1  0  0  0  0
  5 29  1  0  0  0  0
  6  8  1  0  0  0  0
  6 16  1  0  0  0  0
  6 17  1  0  0  0  0
  7  9  1  0  0  0  0
  7 18  1  0  0  0  0
  7 19  1  0  0  0  0
  8 20  1  0  0  0  0
  8 21  1  0  0  0  0
  9 22  1  0  0  0  0
  9 23  1  0  0  0  0
 10 11  1  0  0  0  0
 11 12  1  0  0  0  0
 11 13  2  0  0  0  0
 12 14  2  0  0  0  0
 12 25  1  0  0  0  0
 13 26  1  0  0  0  0
 14 15  1  0  0  0  0
 14 27  1  0  0  0  0
M  END
>  <PUBCHEM_COMPOUND_CID>
58772603

>  <PUBCHEM_CONFORMER_RMSD>
0.6

>  <PUBCHEM_CONFORMER_DIVERSEORDER>
2
3
8
5
4
7
6
1

>  <PUBCHEM_MMFF94_PARTIAL_CHARGES>
21
1 -0.57
10 0.54
11 0.09
12 -0.15
13 0.16
14 -0.15
15 0.41
2 -0.66
24 0.36
25 0.15
26 0.15
27 0.15
28 0.4
29 0.4
3 -0.9
4 -0.62
5 -0.9
6 0.3
7 0.3
8 0.27
9 0.27

>  <PUBCHEM_EFFECTIVE_ROTOR_COUNT>
3.2

>  <PUBCHEM_PHARMACOPHORE_FEATURES>
7
1 1 acceptor
1 3 cation
1 3 donor
1 5 donor
3 4 5 15 cation
6 2 3 6 7 8 9 rings
6 4 11 12 13 14 15 rings

>  <PUBCHEM_HEAVY_ATOM_COUNT>
15

>  <PUBCHEM_ATOM_DEF_STEREO_COUNT>
0

>  <PUBCHEM_ATOM_UDEF_STEREO_COUNT>
0

>  <PUBCHEM_BOND_DEF_STEREO_COUNT>
0

>  <PUBCHEM_BOND_UDEF_STEREO_COUNT>
0

>  <PUBCHEM_ISOTOPIC_ATOM_COUNT>
0

>  <PUBCHEM_COMPONENT_COUNT>
1

>  <PUBCHEM_CACTVS_TAUTO_COUNT>
4

>  <PUBCHEM_CONFORMER_ID>
0380CC7B00000002

>  <PUBCHEM_MMFF94_ENERGY>
41.6692

>  <PUBCHEM_FEATURE_SELFOVERLAP>
35.521

>  <PUBCHEM_SHAPE_FINGERPRINT>
10465860 71 18261689141488613669
10751810 167 17676490562058616887
11031198 65 12901544637422411890
11046707 91 18409167701253018034
11471102 22 16845576400617258844
11543360 7 15068624950100187003
11578080 2 17097460255271190628
12032990 46 18410013264676492171
12251169 10 16988840592378669502
12346177 29 18341886403491502999
12500047 106 18267581321365256469
13296908 3 18338516442895782443
13764800 53 10303816518540542237
14115302 16 17749114412763379415
14289901 80 16415477155719696275
14993402 34 16805606953993014986
15207287 21 18202282472389704647
15219456 202 18060413642577893712
16752209 62 18041548136375057733
16945 1 18337680710779276805
17804303 29 18343305876944455577
17834072 14 18271519883763941789
18175812 5 18060135457430074068
18186145 218 12035722089790218085
19862831 5 17168146740870182470
200 152 16660363658460390884
20201158 50 18060142015744979758
20279233 1 17917715690493339615
20281407 28 18342184349272122150
20281475 54 18341903965174861252
20361792 2 18040433334468314965
20645476 183 16950566601306305899
20871999 31 18259704493009624805
21119208 17 16732703839581486742
21501925 9 18342735264532118165
22485316 2 18409165506756792882
232386 152 18334579087335265815
23402539 116 18336821996482356364
23402655 69 13767919113774136415
23532345 42 18340762745040636976
23557571 272 18342461383722660532
23559900 14 18411133615791549832
26918003 58 17203609285396206851
3286 77 17561359599685929952
568465 68 17346883355624583018
57812782 119 17847062190173796255
69090 78 17775560953636399911
7364860 26 18052542354725376809
74978 22 17896043307261461915
77492 1 17313388894010213992
81228 2 18338249145569777369

>  <PUBCHEM_SHAPE_MULTIPOLES>
282.9
7.36
1.64
1.01
0.83
0.19
-0.05
-2.98
0.12
-1.05
-0.08
0.62
0.01
0.26

>  <PUBCHEM_SHAPE_SELFOVERLAP>
591.495

>  <PUBCHEM_SHAPE_VOLUME>
158.5

>  <PUBCHEM_COORDINATE_TYPE>
2
5
10

$$$$
