58772627
 OpenBabel01182520543D

 34 34  0  0  0  0  0  0  0  0999 V2000
    0.2898    0.8508    1.7650 O   0  0  0  0  0  0  0  0  0  0  0  0
    0.8948   -0.6936    0.0888 N   0  0  0  0  0  0  0  0  0  0  0  0
    4.5028    0.2184    0.0129 N   0  0  0  0  0  0  0  0  0  0  0  0
   -3.1791    1.0430   -0.9568 N   0  0  0  0  0  0  0  0  0  0  0  0
   -5.3824    0.1517   -0.7885 N   0  0  0  0  0  0  0  0  0  0  0  0
    2.2934   -0.7606    0.4144 C   0  0  0  0  0  0  0  0  0  0  0  0
    3.0886    0.2847   -0.3539 C   0  0  0  0  0  0  0  0  0  0  0  0
    0.0015    0.1266    0.8129 C   0  0  0  0  0  0  0  0  0  0  0  0
    0.4442   -1.5216   -1.0349 C   0  0  0  0  0  0  0  0  0  0  0  0
    5.1601   -0.8876   -0.6824 C   0  0  0  0  0  0  0  0  0  0  0  0
    5.1700    1.4833   -0.2932 C   0  0  0  0  0  0  0  0  0  0  0  0
   -1.4136    0.1144    0.4091 C   0  0  0  0  0  0  0  0  0  0  0  0
   -2.3115   -0.7872    0.9698 C   0  0  0  0  0  0  0  0  0  0  0  0
   -1.8932    1.0011   -0.5415 C   0  0  0  0  0  0  0  0  0  0  0  0
   -3.6427   -0.7749    0.5680 C   0  0  0  0  0  0  0  0  0  0  0  0
   -4.0226    0.1515   -0.3897 C   0  0  0  0  0  0  0  0  0  0  0  0
    2.4063   -0.5811    1.4910 H   0  0  0  0  0  0  0  0  0  0  0  0
    2.6408   -1.7809    0.2219 H   0  0  0  0  0  0  0  0  0  0  0  0
    2.9453    0.1848   -1.4378 H   0  0  0  0  0  0  0  0  0  0  0  0
    2.6791    1.2686   -0.0863 H   0  0  0  0  0  0  0  0  0  0  0  0
    1.0641   -1.2946   -1.9075 H   0  0  0  0  0  0  0  0  0  0  0  0
   -0.5984   -1.3760   -1.3136 H   0  0  0  0  0  0  0  0  0  0  0  0
    0.5848   -2.5720   -0.7612 H   0  0  0  0  0  0  0  0  0  0  0  0
    5.1014   -0.7871   -1.7725 H   0  0  0  0  0  0  0  0  0  0  0  0
    6.2197   -0.9338   -0.4048 H   0  0  0  0  0  0  0  0  0  0  0  0
    4.7344   -1.8555   -0.4011 H   0  0  0  0  0  0  0  0  0  0  0  0
    6.2252    1.4432   -0.0003 H   0  0  0  0  0  0  0  0  0  0  0  0
    5.1174    1.7307   -1.3597 H   0  0  0  0  0  0  0  0  0  0  0  0
    4.7213    2.3053    0.2757 H   0  0  0  0  0  0  0  0  0  0  0  0
   -1.9836   -1.5025    1.7191 H   0  0  0  0  0  0  0  0  0  0  0  0
   -1.2398    1.7279   -1.0146 H   0  0  0  0  0  0  0  0  0  0  0  0
   -4.3491   -1.4753    1.0016 H   0  0  0  0  0  0  0  0  0  0  0  0
   -5.6542    0.8262   -1.4930 H   0  0  0  0  0  0  0  0  0  0  0  0
   -5.9021   -0.7152   -0.7289 H   0  0  0  0  0  0  0  0  0  0  0  0
  1  8  2  0  0  0  0
  2  6  1  0  0  0  0
  2  8  1  0  0  0  0
  2  9  1  0  0  0  0
  3  7  1  0  0  0  0
  3 10  1  0  0  0  0
  3 11  1  0  0  0  0
  4 14  1  0  0  0  0
  4 16  2  0  0  0  0
  5 16  1  0  0  0  0
  5 33  1  0  0  0  0
  5 34  1  0  0  0  0
  6  7  1  0  0  0  0
  6 17  1  0  0  0  0
  6 18  1  0  0  0  0
  7 19  1  0  0  0  0
  7 20  1  0  0  0  0
  8 12  1  0  0  0  0
  9 21  1  0  0  0  0
  9 22  1  0  0  0  0
  9 23  1  0  0  0  0
 10 24  1  0  0  0  0
 10 25  1  0  0  0  0
 10 26  1  0  0  0  0
 11 27  1  0  0  0  0
 11 28  1  0  0  0  0
 11 29  1  0  0  0  0
 12 13  1  0  0  0  0
 12 14  2  0  0  0  0
 13 15  2  0  0  0  0
 13 30  1  0  0  0  0
 14 31  1  0  0  0  0
 15 16  1  0  0  0  0
 15 32  1  0  0  0  0
M  END
>  <PUBCHEM_COMPOUND_CID>
58772627

>  <PUBCHEM_CONFORMER_RMSD>
0.6

>  <PUBCHEM_CONFORMER_DIVERSEORDER>
3
67
50
49
26
93
53
107
42
98
47
38
68
63
41
86
19
74
95
85
113
103
15
104
76
112
94
28
34
10
101
92
55
23
13
37
29
122
105
87
9
33
5
106
62
111
36
65
70
88
90
81
119
35
31
82
89
91
69
80
77
66
121
100
24
48
32
20
45
30
78
52
16
14
22
56
72
57
54
79
43
118
59
97
25
46
64
110
8
51
109
71
73
39
115
108
102
84
44
40
58
11
21
99
17
61
7
120
27
114
2
18
4
12
83
117
116
1
60
96
6
75

>  <PUBCHEM_MMFF94_PARTIAL_CHARGES>
21
1 -0.57
10 0.27
11 0.27
12 0.09
13 -0.15
14 0.16
15 -0.15
16 0.41
2 -0.66
3 -0.81
30 0.15
31 0.15
32 0.15
33 0.4
34 0.4
4 -0.62
5 -0.9
6 0.3
7 0.27
8 0.54
9 0.3

>  <PUBCHEM_EFFECTIVE_ROTOR_COUNT>
5

>  <PUBCHEM_PHARMACOPHORE_FEATURES>
5
1 1 acceptor
1 3 cation
1 5 donor
3 4 5 16 cation
6 4 12 13 14 15 16 rings

>  <PUBCHEM_HEAVY_ATOM_COUNT>
16

>  <PUBCHEM_ATOM_DEF_STEREO_COUNT>
0

>  <PUBCHEM_ATOM_UDEF_STEREO_COUNT>
0

>  <PUBCHEM_BOND_DEF_STEREO_COUNT>
0

>  <PUBCHEM_BOND_UDEF_STEREO_COUNT>
0

>  <PUBCHEM_ISOTOPIC_ATOM_COUNT>
0

>  <PUBCHEM_COMPONENT_COUNT>
1

>  <PUBCHEM_CACTVS_TAUTO_COUNT>
4

>  <PUBCHEM_CONFORMER_ID>
0380CC9300000003

>  <PUBCHEM_MMFF94_ENERGY>
52.456

>  <PUBCHEM_FEATURE_SELFOVERLAP>
25.372

>  <PUBCHEM_SHAPE_FINGERPRINT>
11128504 68 16845576456858379496
11401426 45 15285356223843554711
12236239 1 15697998548423095531
13533116 47 16950553338626371410
13760787 5 17918001568127968330
14911166 2 17703787037328850771
14993402 34 17060616707081622251
15048467 5 18412548682909146721
15209294 21 15791724170522145053
17834072 33 13830124023012654834
17834076 25 16225768514695748854
1813 80 15841559582559788632
187816 3 17632861932004599698
19489759 90 17530964691816010896
200 152 17989488502339912219
20300324 65 18040716982856661241
20344682 1 18411134727934787903
20645477 56 17530686485436006495
20645477 70 18200881682461363774
20871999 31 18114174289936716899
23227448 37 18192715772530650988
23402539 116 17603583062575286655
23557571 272 18260271802412958357
23559900 14 17968095296594240554
351380 180 17748826341096801420
3545911 37 17603588508372116002
42 15 10952051160516501688
474 4 15647060356293143836

>  <PUBCHEM_SHAPE_MULTIPOLES>
303.48
11.06
1.27
1.12
6.14
0.03
0.19
1.81
-2.86
0.59
-0.19
-0.34
-0.01
0.66

>  <PUBCHEM_SHAPE_SELFOVERLAP>
611.187

>  <PUBCHEM_SHAPE_VOLUME>
179.2

>  <PUBCHEM_COORDINATE_TYPE>
2
5
10

$$$$
