58772618
 OpenBabel01182520543D

 25 25  0  0  0  0  0  0  0  0999 V2000
    1.2749    1.6155   -0.6989 O   0  0  0  0  0  0  0  0  0  0  0  0
    1.7056   -0.6318   -0.3175 N   0  0  0  0  0  0  0  0  0  0  0  0
    5.2755   -0.2020    0.6249 N   0  0  0  0  0  0  0  0  0  0  0  0
   -2.4486   -1.2654   -0.2337 N   0  0  0  0  0  0  0  0  0  0  0  0
   -4.5980   -0.4800    0.4297 N   0  0  0  0  0  0  0  0  0  0  0  0
    3.1309   -0.5654   -0.4920 C   0  0  0  0  0  0  0  0  0  0  0  0
    3.8341   -0.2749    0.8257 C   0  0  0  0  0  0  0  0  0  0  0  0
   -0.5666    0.2518   -0.2014 C   0  0  0  0  0  0  0  0  0  0  0  0
    0.8821    0.4816   -0.4372 C   0  0  0  0  0  0  0  0  0  0  0  0
   -1.3902    1.2755    0.2537 C   0  0  0  0  0  0  0  0  0  0  0  0
   -1.1394   -0.9893   -0.4279 C   0  0  0  0  0  0  0  0  0  0  0  0
   -2.7424    1.0301    0.4655 C   0  0  0  0  0  0  0  0  0  0  0  0
   -3.2180   -0.2457    0.2091 C   0  0  0  0  0  0  0  0  0  0  0  0
    3.3655    0.2068   -1.2339 H   0  0  0  0  0  0  0  0  0  0  0  0
    3.4506   -1.5318   -0.8975 H   0  0  0  0  0  0  0  0  0  0  0  0
    3.6039   -1.0562    1.5591 H   0  0  0  0  0  0  0  0  0  0  0  0
    3.4817    0.6747    1.2436 H   0  0  0  0  0  0  0  0  0  0  0  0
    1.3215   -1.5279   -0.0376 H   0  0  0  0  0  0  0  0  0  0  0  0
   -0.9951    2.2681    0.4520 H   0  0  0  0  0  0  0  0  0  0  0  0
   -0.5762   -1.8345   -0.8093 H   0  0  0  0  0  0  0  0  0  0  0  0
   -3.3912    1.8241    0.8209 H   0  0  0  0  0  0  0  0  0  0  0  0
    5.6183   -1.0926    0.2669 H   0  0  0  0  0  0  0  0  0  0  0  0
    5.7354   -0.0592    1.5231 H   0  0  0  0  0  0  0  0  0  0  0  0
   -5.0760    0.0776    1.1267 H   0  0  0  0  0  0  0  0  0  0  0  0
   -4.9399   -1.4154    0.2470 H   0  0  0  0  0  0  0  0  0  0  0  0
  1  9  2  0  0  0  0
  2  6  1  0  0  0  0
  2  9  1  0  0  0  0
  2 18  1  0  0  0  0
  3  7  1  0  0  0  0
  3 22  1  0  0  0  0
  3 23  1  0  0  0  0
  4 11  1  0  0  0  0
  4 13  2  0  0  0  0
  5 13  1  0  0  0  0
  5 24  1  0  0  0  0
  5 25  1  0  0  0  0
  6  7  1  0  0  0  0
  6 14  1  0  0  0  0
  6 15  1  0  0  0  0
  7 16  1  0  0  0  0
  7 17  1  0  0  0  0
  8  9  1  0  0  0  0
  8 10  1  0  0  0  0
  8 11  2  0  0  0  0
 10 12  2  0  0  0  0
 10 19  1  0  0  0  0
 11 20  1  0  0  0  0
 12 13  1  0  0  0  0
 12 21  1  0  0  0  0
M  END
>  <PUBCHEM_COMPOUND_CID>
58772618

>  <PUBCHEM_CONFORMER_RMSD>
0.6

>  <PUBCHEM_CONFORMER_DIVERSEORDER>
1
8
16
4
17
20
14
9
15
12
18
19
5
11
13
10
6
7
2
3

>  <PUBCHEM_MMFF94_PARTIAL_CHARGES>
21
1 -0.57
10 -0.15
11 0.16
12 -0.15
13 0.41
18 0.37
19 0.15
2 -0.73
20 0.15
21 0.15
22 0.36
23 0.36
24 0.4
25 0.4
3 -0.99
4 -0.62
5 -0.9
6 0.3
7 0.27
8 0.09
9 0.54

>  <PUBCHEM_EFFECTIVE_ROTOR_COUNT>
4

>  <PUBCHEM_PHARMACOPHORE_FEATURES>
7
1 1 acceptor
1 2 donor
1 3 cation
1 3 donor
1 5 donor
3 4 5 13 cation
6 4 8 10 11 12 13 rings

>  <PUBCHEM_HEAVY_ATOM_COUNT>
13

>  <PUBCHEM_ATOM_DEF_STEREO_COUNT>
0

>  <PUBCHEM_ATOM_UDEF_STEREO_COUNT>
0

>  <PUBCHEM_BOND_DEF_STEREO_COUNT>
0

>  <PUBCHEM_BOND_UDEF_STEREO_COUNT>
0

>  <PUBCHEM_ISOTOPIC_ATOM_COUNT>
0

>  <PUBCHEM_COMPONENT_COUNT>
1

>  <PUBCHEM_CACTVS_TAUTO_COUNT>
7

>  <PUBCHEM_CONFORMER_ID>
0380CC8A00000001

>  <PUBCHEM_MMFF94_ENERGY>
28.7667

>  <PUBCHEM_FEATURE_SELFOVERLAP>
35.522

>  <PUBCHEM_SHAPE_FINGERPRINT>
10130415 120 18411143566909001889
11062470 55 15554449587091760171
11132069 177 18342179938087508198
11401426 45 18201997716780360733
12251169 10 18343018904404305220
13690532 89 18259705601211348667
14252887 29 18341339907415679346
15375462 189 17967807237358513258
18186145 218 10015571775623284042
18522853 276 18413672404771405665
200 152 15791448223210503106
20510252 161 17845940615272699425
20645464 45 16917069970843858037
20645477 70 14490466461944414290
21119208 17 8358255947340238546
21501925 9 18410856572561757732
22485316 2 17386001763084740586
23402539 116 18131343112401119061
23559900 14 17988084370863594774
42 15 18409731767881982217
449060 50 17703787020723838584
4990 188 11818991872724609424
7364860 26 18270124655059074748

>  <PUBCHEM_SHAPE_MULTIPOLES>
241.74
8.39
1.26
0.8
5.95
0.23
0.03
-1.57
2.6
-0.56
-0.13
0.35
0.04
-0.2

>  <PUBCHEM_SHAPE_SELFOVERLAP>
492.595

>  <PUBCHEM_SHAPE_VOLUME>
139.3

>  <PUBCHEM_COORDINATE_TYPE>
2
5
10

$$$$
