58863107
 OpenBabel01182520543D

 28 29  0  0  0  0  0  0  0  0999 V2000
   -2.0169    2.5800    0.0033 O   0  0  0  0  0  0  0  0  0  0  0  0
    1.1249    0.0728    0.0018 N   0  0  0  0  0  0  0  0  0  0  0  0
    0.2525    2.3026   -0.0005 N   0  0  0  0  0  0  0  0  0  0  0  0
   -0.3555   -1.8479   -0.0005 N   0  0  0  0  0  0  0  0  0  0  0  0
    2.2293   -0.8780    0.0014 C   0  0  0  0  0  0  0  0  0  0  0  0
   -0.1712   -0.5004    0.0004 C   0  0  0  0  0  0  0  0  0  0  0  0
    1.2420    1.4565   -0.0006 C   0  0  0  0  0  0  0  0  0  0  0  0
    2.1568   -1.7310   -1.2582 C   0  0  0  0  0  0  0  0  0  0  0  0
    2.1617   -1.7366    1.2577 C   0  0  0  0  0  0  0  0  0  0  0  0
   -1.2678    0.3675    0.0001 C   0  0  0  0  0  0  0  0  0  0  0  0
   -1.0427    1.8340    0.0013 C   0  0  0  0  0  0  0  0  0  0  0  0
    2.6221    2.0822   -0.0032 C   0  0  0  0  0  0  0  0  0  0  0  0
   -2.5647   -0.1515   -0.0008 C   0  0  0  0  0  0  0  0  0  0  0  0
   -2.7487   -1.5260   -0.0012 C   0  0  0  0  0  0  0  0  0  0  0  0
   -1.6216   -2.3241   -0.0010 C   0  0  0  0  0  0  0  0  0  0  0  0
    3.1916   -0.3576    0.0011 H   0  0  0  0  0  0  0  0  0  0  0  0
    1.4612   -2.5720   -1.2181 H   0  0  0  0  0  0  0  0  0  0  0  0
    1.9218   -1.1273   -2.1422 H   0  0  0  0  0  0  0  0  0  0  0  0
    3.1403   -2.1842   -1.4355 H   0  0  0  0  0  0  0  0  0  0  0  0
    1.4610   -2.5735    1.2189 H   0  0  0  0  0  0  0  0  0  0  0  0
    1.9346   -1.1349    2.1451 H   0  0  0  0  0  0  0  0  0  0  0  0
    3.1441   -2.1951    1.4269 H   0  0  0  0  0  0  0  0  0  0  0  0
    3.1689    1.7731    0.8919 H   0  0  0  0  0  0  0  0  0  0  0  0
    2.5515    3.1742   -0.0053 H   0  0  0  0  0  0  0  0  0  0  0  0
    3.1672    1.7696   -0.8981 H   0  0  0  0  0  0  0  0  0  0  0  0
   -3.4357    0.4973   -0.0010 H   0  0  0  0  0  0  0  0  0  0  0  0
   -3.7426   -1.9582   -0.0018 H   0  0  0  0  0  0  0  0  0  0  0  0
   -1.7057   -3.4058   -0.0015 H   0  0  0  0  0  0  0  0  0  0  0  0
  1 11  2  0  0  0  0
  2  5  1  0  0  0  0
  2  6  1  0  0  0  0
  2  7  1  0  0  0  0
  3  7  2  0  0  0  0
  3 11  1  0  0  0  0
  4  6  1  0  0  0  0
  4 15  2  0  0  0  0
  5  8  1  0  0  0  0
  5  9  1  0  0  0  0
  5 16  1  0  0  0  0
  6 10  2  0  0  0  0
  7 12  1  0  0  0  0
  8 17  1  0  0  0  0
  8 18  1  0  0  0  0
  8 19  1  0  0  0  0
  9 20  1  0  0  0  0
  9 21  1  0  0  0  0
  9 22  1  0  0  0  0
 10 11  1  0  0  0  0
 10 13  1  0  0  0  0
 12 23  1  0  0  0  0
 12 24  1  0  0  0  0
 12 25  1  0  0  0  0
 13 14  2  0  0  0  0
 13 26  1  0  0  0  0
 14 15  1  0  0  0  0
 14 27  1  0  0  0  0
 15 28  1  0  0  0  0
M  END
>  <PUBCHEM_COMPOUND_CID>
58863107

>  <PUBCHEM_CONFORMER_RMSD>
0.4

>  <PUBCHEM_CONFORMER_DIVERSEORDER>
1
2

>  <PUBCHEM_MMFF94_PARTIAL_CHARGES>
16
1 -0.57
10 0.09
11 0.69
12 0.06
13 -0.15
14 -0.15
15 0.16
2 -0.52
26 0.15
27 0.15
28 0.15
3 -0.66
4 -0.62
5 0.37
6 0.41
7 0.44

>  <PUBCHEM_EFFECTIVE_ROTOR_COUNT>
1

>  <PUBCHEM_PHARMACOPHORE_FEATURES>
6
1 1 acceptor
1 3 donor
1 4 acceptor
3 5 8 9 hydrophobe
6 2 3 6 7 10 11 rings
6 4 6 10 13 14 15 rings

>  <PUBCHEM_HEAVY_ATOM_COUNT>
15

>  <PUBCHEM_ATOM_DEF_STEREO_COUNT>
0

>  <PUBCHEM_ATOM_UDEF_STEREO_COUNT>
0

>  <PUBCHEM_BOND_DEF_STEREO_COUNT>
0

>  <PUBCHEM_BOND_UDEF_STEREO_COUNT>
0

>  <PUBCHEM_ISOTOPIC_ATOM_COUNT>
0

>  <PUBCHEM_COMPONENT_COUNT>
1

>  <PUBCHEM_CACTVS_TAUTO_COUNT>
1

>  <PUBCHEM_CONFORMER_ID>
03822E0300000001

>  <PUBCHEM_MMFF94_ENERGY>
53.0186

>  <PUBCHEM_FEATURE_SELFOVERLAP>
30.475

>  <PUBCHEM_SHAPE_FINGERPRINT>
10967382 1 18122343755181725191
11578080 2 17097186387113337206
12382932 28 18195244635988596803
12423570 1 16884426333819225732
12524768 44 18341055223781861591
13140716 1 18338797793376905873
13380535 76 18050002499981494026
14790565 3 17548722689748664720
161256 15 18340216279176978988
16945 1 18338798884245682183
17990270 104 18342180006907614502
193761 8 18410575080394803684
19591789 44 17332258498202778335
20588541 1 18121220054371893741
20645476 183 17464002084126611582
20645477 70 18196086862444911471
20905425 154 18340771549955670012
21501502 16 18411700988870429952
2334 1 18410573976704370089
23419403 2 16899822984048103016
23463225 33 18047746289426247960
23552423 10 18261113027423428543
23557571 272 18128545877695690606
23559900 14 17839186204471466942
2748010 2 18410009897190322333
34934 24 18196646522088711327
43471831 8 18191296294508411352
528886 8 17908138029287123809
589210 1 18411136930957897068
7364860 26 18271530917535094046
81228 2 18268146466110172291

>  <PUBCHEM_SHAPE_MULTIPOLES>
287.88
3.91
3.16
0.82
0.36
0.93
0
-0.66
0
-0.25
0
-0.44
-0.45
0

>  <PUBCHEM_SHAPE_SELFOVERLAP>
614.85

>  <PUBCHEM_SHAPE_VOLUME>
159.2

>  <PUBCHEM_COORDINATE_TYPE>
2
5
10

$$$$
