59128735
 OpenBabel01182520543D

 27 27  0  0  0  0  0  0  0  0999 V2000
   -1.6007   -0.4135    1.8474 O   0  0  0  0  0  0  0  0  0  0  0  0
    2.1929    1.1871    0.2268 N   0  0  0  0  0  0  0  0  0  0  0  0
    4.2148    0.1161   -0.4378 N   0  0  0  0  0  0  0  0  0  0  0  0
   -2.3239    0.0922   -0.4245 C   0  0  0  0  0  0  0  0  0  0  0  0
   -1.2847   -0.1556    0.6863 C   0  0  0  0  0  0  0  0  0  0  0  0
   -3.2550   -1.1240   -0.5121 C   0  0  0  0  0  0  0  0  0  0  0  0
   -3.1527    1.3261   -0.0166 C   0  0  0  0  0  0  0  0  0  0  0  0
   -1.7007    0.3767   -1.7992 C   0  0  0  0  0  0  0  0  0  0  0  0
    0.1581   -0.1087    0.3861 C   0  0  0  0  0  0  0  0  0  0  0  0
    0.8462   -1.2513   -0.0071 C   0  0  0  0  0  0  0  0  0  0  0  0
    0.8710    1.0752    0.4870 C   0  0  0  0  0  0  0  0  0  0  0  0
    2.2068   -1.1760   -0.2836 C   0  0  0  0  0  0  0  0  0  0  0  0
    2.8281    0.0556   -0.1528 C   0  0  0  0  0  0  0  0  0  0  0  0
   -4.0335   -0.9778   -1.2690 H   0  0  0  0  0  0  0  0  0  0  0  0
   -2.6922   -2.0266   -0.7763 H   0  0  0  0  0  0  0  0  0  0  0  0
   -3.7515   -1.3207    0.4450 H   0  0  0  0  0  0  0  0  0  0  0  0
   -3.9272    1.5503   -0.7586 H   0  0  0  0  0  0  0  0  0  0  0  0
   -2.5147    2.2117    0.0858 H   0  0  0  0  0  0  0  0  0  0  0  0
   -3.6496    1.1726    0.9484 H   0  0  0  0  0  0  0  0  0  0  0  0
   -2.4772    0.5590   -2.5514 H   0  0  0  0  0  0  0  0  0  0  0  0
   -1.1025   -0.4707   -2.1517 H   0  0  0  0  0  0  0  0  0  0  0  0
   -1.0541    1.2607   -1.7796 H   0  0  0  0  0  0  0  0  0  0  0  0
    0.3309   -2.2033   -0.1015 H   0  0  0  0  0  0  0  0  0  0  0  0
    0.3880    1.9996    0.7888 H   0  0  0  0  0  0  0  0  0  0  0  0
    2.7500   -2.0633   -0.5918 H   0  0  0  0  0  0  0  0  0  0  0  0
    4.6659    1.0167   -0.3349 H   0  0  0  0  0  0  0  0  0  0  0  0
    4.7721   -0.7179   -0.2993 H   0  0  0  0  0  0  0  0  0  0  0  0
  1  5  2  0  0  0  0
  2 11  1  0  0  0  0
  2 13  2  0  0  0  0
  3 13  1  0  0  0  0
  3 26  1  0  0  0  0
  3 27  1  0  0  0  0
  4  5  1  0  0  0  0
  4  6  1  0  0  0  0
  4  7  1  0  0  0  0
  4  8  1  0  0  0  0
  5  9  1  0  0  0  0
  6 14  1  0  0  0  0
  6 15  1  0  0  0  0
  6 16  1  0  0  0  0
  7 17  1  0  0  0  0
  7 18  1  0  0  0  0
  7 19  1  0  0  0  0
  8 20  1  0  0  0  0
  8 21  1  0  0  0  0
  8 22  1  0  0  0  0
  9 10  1  0  0  0  0
  9 11  2  0  0  0  0
 10 12  2  0  0  0  0
 10 23  1  0  0  0  0
 11 24  1  0  0  0  0
 12 13  1  0  0  0  0
 12 25  1  0  0  0  0
M  END
>  <PUBCHEM_COMPOUND_CID>
59128735

>  <PUBCHEM_CONFORMER_RMSD>
0.6

>  <PUBCHEM_CONFORMER_DIVERSEORDER>
2
6
1
5
4
3

>  <PUBCHEM_MMFF94_PARTIAL_CHARGES>
15
1 -0.57
10 -0.15
11 0.16
12 -0.15
13 0.41
2 -0.62
23 0.15
24 0.15
25 0.15
26 0.4
27 0.4
3 -0.9
4 0.06
5 0.42
9 0.09

>  <PUBCHEM_EFFECTIVE_ROTOR_COUNT>
2

>  <PUBCHEM_PHARMACOPHORE_FEATURES>
5
1 1 acceptor
1 3 donor
3 2 3 13 cation
4 4 6 7 8 hydrophobe
6 2 9 10 11 12 13 rings

>  <PUBCHEM_HEAVY_ATOM_COUNT>
13

>  <PUBCHEM_ATOM_DEF_STEREO_COUNT>
0

>  <PUBCHEM_ATOM_UDEF_STEREO_COUNT>
0

>  <PUBCHEM_BOND_DEF_STEREO_COUNT>
0

>  <PUBCHEM_BOND_UDEF_STEREO_COUNT>
0

>  <PUBCHEM_ISOTOPIC_ATOM_COUNT>
0

>  <PUBCHEM_COMPONENT_COUNT>
1

>  <PUBCHEM_CACTVS_TAUTO_COUNT>
5

>  <PUBCHEM_CONFORMER_ID>
03863B9F00000002

>  <PUBCHEM_MMFF94_ENERGY>
49.4048

>  <PUBCHEM_FEATURE_SELFOVERLAP>
25.371

>  <PUBCHEM_SHAPE_FINGERPRINT>
11031198 65 18336552624733814279
11401426 45 18201432559097659192
12138202 97 17386001805829075171
124424 183 17748820817932064258
12897270 3 18340476842121364775
12932764 1 17822003168977859379
13024252 1 11458425752195281417
13581323 91 15502381122873158960
13764800 53 16009587933269749661
13839132 238 16951394434466212175
14993402 34 17418373571502699740
15310529 11 18131062753857357797
15775835 57 18411700967432374119
16945 1 18339632373961978448
17844478 74 17676779673466223721
18186145 218 17968938582925307750
18534176 82 17240770617766800635
200 152 17989203772057760831
20201158 50 18260829284783191282
20281407 28 13183020730618901388
20361792 2 15482658113817871937
20645464 45 17530969068329637369
20645476 183 17561075891558373319
20653085 51 18411136935490234865
21119208 17 17561362863734636612
21501502 16 18115297887118375803
22802520 49 17243573083895896079
23402539 116 16950555610479603447
23402655 69 18339355263141902933
23557571 272 17096387161691202850
23559900 14 14979950359949530310
25 1 18263643974457653001
2748010 2 17982459492640248074
305870 269 15648161985228988137
3248919 1 17531250568965433834
465052 167 16557336275533773703
528886 8 18342731888703498491
63268167 104 18130790036076377130
6333449 129 17313108578817052835
77492 1 17346885537145975786
8030462 33 16486973942829470147

>  <PUBCHEM_SHAPE_MULTIPOLES>
251.7
5.81
1.29
1.18
2.12
0.01
0.01
-0.15
1.2
-0.13
0
-0.78
0.01
0.05

>  <PUBCHEM_SHAPE_SELFOVERLAP>
517.974

>  <PUBCHEM_SHAPE_VOLUME>
145.5

>  <PUBCHEM_COORDINATE_TYPE>
2
5
10

$$$$
