59276122
 OpenBabel01182520543D

 47 47  0  0  0  0  0  0  0  0999 V2000
    0.8325    2.0397    1.2534 O   0  0  0  0  0  0  0  0  0  0  0  0
    1.0484   -0.0606    0.2467 N   0  0  0  0  0  0  0  0  0  0  0  0
   -2.8333    1.8747   -1.2012 N   0  0  0  0  0  0  0  0  0  0  0  0
   -5.1157    1.5092   -0.6233 N   0  0  0  0  0  0  0  0  0  0  0  0
    0.3968   -1.1582   -0.4826 C   0  0  0  0  0  0  0  0  0  0  0  0
    2.4458   -0.2269    0.5338 C   0  0  0  0  0  0  0  0  0  0  0  0
   -0.1875   -2.2147    0.4521 C   0  0  0  0  0  0  0  0  0  0  0  0
    3.3396    0.3259   -0.5740 C   0  0  0  0  0  0  0  0  0  0  0  0
   -0.8607   -3.4089   -0.2531 C   0  0  0  0  0  0  0  0  0  0  0  0
    4.8533    0.1517   -0.3386 C   0  0  0  0  0  0  0  0  0  0  0  0
   -1.3734   -4.4577    0.7349 C   0  0  0  0  0  0  0  0  0  0  0  0
   -2.0182   -2.9096   -1.1224 C   0  0  0  0  0  0  0  0  0  0  0  0
    5.6901    0.6727   -1.5079 C   0  0  0  0  0  0  0  0  0  0  0  0
    5.2617    0.8720    0.9494 C   0  0  0  0  0  0  0  0  0  0  0  0
    0.3409    1.0915    0.6423 C   0  0  0  0  0  0  0  0  0  0  0  0
   -1.0944    1.1901    0.3324 C   0  0  0  0  0  0  0  0  0  0  0  0
   -2.0539    0.7207    1.2225 C   0  0  0  0  0  0  0  0  0  0  0  0
   -1.5320    1.7536   -0.8553 C   0  0  0  0  0  0  0  0  0  0  0  0
   -3.4028    0.8276    0.9021 C   0  0  0  0  0  0  0  0  0  0  0  0
   -3.7372    1.4073   -0.3111 C   0  0  0  0  0  0  0  0  0  0  0  0
    1.1358   -1.6166   -1.1507 H   0  0  0  0  0  0  0  0  0  0  0  0
   -0.3778   -0.7432   -1.1297 H   0  0  0  0  0  0  0  0  0  0  0  0
    2.6598   -1.2868    0.7119 H   0  0  0  0  0  0  0  0  0  0  0  0
    2.6518    0.3014    1.4704 H   0  0  0  0  0  0  0  0  0  0  0  0
   -0.9021   -1.7588    1.1443 H   0  0  0  0  0  0  0  0  0  0  0  0
    0.6196   -2.6040    1.0868 H   0  0  0  0  0  0  0  0  0  0  0  0
    3.1144    1.3907   -0.7219 H   0  0  0  0  0  0  0  0  0  0  0  0
    3.0784   -0.1655   -1.5203 H   0  0  0  0  0  0  0  0  0  0  0  0
   -0.1227   -3.8925   -0.9054 H   0  0  0  0  0  0  0  0  0  0  0  0
    5.0688   -0.9175   -0.2198 H   0  0  0  0  0  0  0  0  0  0  0  0
   -1.8181   -5.3081    0.2074 H   0  0  0  0  0  0  0  0  0  0  0  0
   -0.5533   -4.8380    1.3528 H   0  0  0  0  0  0  0  0  0  0  0  0
   -2.1324   -4.0357    1.4022 H   0  0  0  0  0  0  0  0  0  0  0  0
   -2.5691   -3.7536   -1.5524 H   0  0  0  0  0  0  0  0  0  0  0  0
   -1.6627   -2.3063   -1.9627 H   0  0  0  0  0  0  0  0  0  0  0  0
   -2.7265   -2.3100   -0.5406 H   0  0  0  0  0  0  0  0  0  0  0  0
    6.7579    0.5094   -1.3285 H   0  0  0  0  0  0  0  0  0  0  0  0
    5.4226    0.1537   -2.4342 H   0  0  0  0  0  0  0  0  0  0  0  0
    5.5304    1.7451   -1.6627 H   0  0  0  0  0  0  0  0  0  0  0  0
    6.3492    0.8408    1.0803 H   0  0  0  0  0  0  0  0  0  0  0  0
    4.8252    0.3974    1.8333 H   0  0  0  0  0  0  0  0  0  0  0  0
    4.9565    1.9238    0.9344 H   0  0  0  0  0  0  0  0  0  0  0  0
   -1.7625    0.2786    2.1714 H   0  0  0  0  0  0  0  0  0  0  0  0
   -0.8299    2.1370   -1.5895 H   0  0  0  0  0  0  0  0  0  0  0  0
   -4.1571    0.4652    1.5929 H   0  0  0  0  0  0  0  0  0  0  0  0
   -5.7508    0.8265   -0.2283 H   0  0  0  0  0  0  0  0  0  0  0  0
   -5.3551    1.9278   -1.5136 H   0  0  0  0  0  0  0  0  0  0  0  0
  1 15  2  0  0  0  0
  2  5  1  0  0  0  0
  2  6  1  0  0  0  0
  2 15  1  0  0  0  0
  3 18  1  0  0  0  0
  3 20  2  0  0  0  0
  4 20  1  0  0  0  0
  4 46  1  0  0  0  0
  4 47  1  0  0  0  0
  5  7  1  0  0  0  0
  5 21  1  0  0  0  0
  5 22  1  0  0  0  0
  6  8  1  0  0  0  0
  6 23  1  0  0  0  0
  6 24  1  0  0  0  0
  7  9  1  0  0  0  0
  7 25  1  0  0  0  0
  7 26  1  0  0  0  0
  8 10  1  0  0  0  0
  8 27  1  0  0  0  0
  8 28  1  0  0  0  0
  9 11  1  0  0  0  0
  9 12  1  0  0  0  0
  9 29  1  0  0  0  0
 10 13  1  0  0  0  0
 10 14  1  0  0  0  0
 10 30  1  0  0  0  0
 11 31  1  0  0  0  0
 11 32  1  0  0  0  0
 11 33  1  0  0  0  0
 12 34  1  0  0  0  0
 12 35  1  0  0  0  0
 12 36  1  0  0  0  0
 13 37  1  0  0  0  0
 13 38  1  0  0  0  0
 13 39  1  0  0  0  0
 14 40  1  0  0  0  0
 14 41  1  0  0  0  0
 14 42  1  0  0  0  0
 15 16  1  0  0  0  0
 16 17  1  0  0  0  0
 16 18  2  0  0  0  0
 17 19  2  0  0  0  0
 17 43  1  0  0  0  0
 18 44  1  0  0  0  0
 19 20  1  0  0  0  0
 19 45  1  0  0  0  0
M  END
>  <PUBCHEM_COMPOUND_CID>
59276122

>  <PUBCHEM_CONFORMER_RMSD>
0.8

>  <PUBCHEM_CONFORMER_DIVERSEORDER>
1
60
290
282
143
219
110
185
86
284
182
273
45
27
330
225
216
177
280
266
243
168
277
73
307
107
192
288
130
292
173
309
256
189
264
234
30
147
49
281
261
139
162
193
240
324
58
206
114
200
102
126
247
319
310
238
235
314
244
257
202
158
229
237
31
265
318
51
275
278
320
268
303
32
313
71
57
131
325
171
208
125
329
279
195
128
100
151
104
212
299
301
113
250
308
101
213
306
56
167
93
172
276
203
286
245
191
220
148
190
272
99
204
209
169
79
181
88
293
186
44
184
67
271
84
287
161
164
196
61
236
176
297
80
87
311
262
201
183
239
253
270
120
211
214
222
218
138
154
259
226
255
106
117
298
179
205
252
124
258
97
14
248
122
331
50
231
129
105
230
8
269
94
263
91
136
251
37
296
223
178
285
12
170
302
47
26
149
63
10
2
305
65
23
118
123
166
315
53
326
267
217
29
174
28
81
291
119
95
198
150
33
109
140
70
159
210
157
111
188
300
116
242
146
232
137
215
135
34
134
322
227
74
43
133
180
160
254
317
108
142
312
249
82
228
54
96
156
323
115
207
68
145
20
144
221
121
197
66
85
260
152
75
141
92
199
246
224
40
16
38
18
187
83
316
132
36
11
9
175
17
98
321
103
283
4
112
127
3
78
13
90
274
155
163
165
241
153
194
24
41
294
22
46
7
19
5
328
64
52
304
15
89
69
21
233
77
327
35
76
62
295
289
72
55
6
48
39
59
42
25

>  <PUBCHEM_MMFF94_PARTIAL_CHARGES>
17
1 -0.57
15 0.54
16 0.09
17 -0.15
18 0.16
19 -0.15
2 -0.66
20 0.41
3 -0.62
4 -0.9
43 0.15
44 0.15
45 0.15
46 0.4
47 0.4
5 0.3
6 0.3

>  <PUBCHEM_EFFECTIVE_ROTOR_COUNT>
8

>  <PUBCHEM_PHARMACOPHORE_FEATURES>
6
1 1 acceptor
1 4 donor
3 10 13 14 hydrophobe
3 3 4 20 cation
3 9 11 12 hydrophobe
6 3 16 17 18 19 20 rings

>  <PUBCHEM_HEAVY_ATOM_COUNT>
20

>  <PUBCHEM_ATOM_DEF_STEREO_COUNT>
0

>  <PUBCHEM_ATOM_UDEF_STEREO_COUNT>
0

>  <PUBCHEM_BOND_DEF_STEREO_COUNT>
0

>  <PUBCHEM_BOND_UDEF_STEREO_COUNT>
0

>  <PUBCHEM_ISOTOPIC_ATOM_COUNT>
0

>  <PUBCHEM_COMPONENT_COUNT>
1

>  <PUBCHEM_CACTVS_TAUTO_COUNT>
4

>  <PUBCHEM_CONFORMER_ID>
03887B5A00000001

>  <PUBCHEM_MMFF94_ENERGY>
51.105

>  <PUBCHEM_FEATURE_SELFOVERLAP>
30.446

>  <PUBCHEM_SHAPE_FINGERPRINT>
121448 382 18341601620814948423
12969540 114 18410003308721104884
13052359 8 18409728490964847378
13149001 5 18130220566447412408
13583140 156 17676498258814377472
13911987 19 18408889503299944540
14251757 5 18339368581714233334
14790565 3 18269841917061623768
16752209 62 18339916142952989210
17357779 13 17984691487758851694
17492 54 18263907922295464319
17539 30 18196367250188143775
17980427 23 17095536075768000917
19427546 20 18191597560841939772
20344682 1 18041279864106859085
204376 136 18337674117962091003
20645476 183 18335138687261642966
20871999 31 18341328989418629830
21033648 29 18339066108832855928
21236236 1 18270959158640814862
21344244 181 17775012245330802887
22224240 67 18342183254651613153
22620623 9 18200879603285677430
229495 10 17096908214655370094
23227448 37 18336551641798766180
23419403 2 17058358430330882282
23557571 272 18128834086990886174
23558518 356 17899976324810395680
23559900 14 17615393775688238683
3759504 43 18335421266034567999
53917941 68 18338502123332509798
5486654 2 18411703166508688861
58779409 54 18270958067582010614
59755656 520 18200049355947247570
633830 44 17914906331021037212
6669772 16 18269843021364006822
81228 2 18050274057957781411
9925002 15 17970926680173462476

>  <PUBCHEM_SHAPE_MULTIPOLES>
390.78
9.46
3.95
1.25
12.45
6.26
0.07
-5.76
2.28
-4.82
-0.06
0.23
-0.23
0.37

>  <PUBCHEM_SHAPE_SELFOVERLAP>
774.693

>  <PUBCHEM_SHAPE_VOLUME>
232.8

>  <PUBCHEM_COORDINATE_TYPE>
2
5
10

$$$$
