59403155
 OpenBabel01182520543D

 29 29  0  0  0  0  0  0  0  0999 V2000
    0.8546    1.8819   -0.4555 O   0  0  0  0  0  0  0  0  0  0  0  0
    1.4431   -0.0424    0.6984 N   0  0  0  0  0  0  0  0  0  0  0  0
   -3.2100    0.9415   -0.1001 N   0  0  0  0  0  0  0  0  0  0  0  0
   -4.8476   -0.7890   -0.0802 N   0  0  0  0  0  0  0  0  0  0  0  0
    3.6716   -0.2729   -0.3378 C   0  0  0  0  0  0  0  0  0  0  0  0
    2.8419    0.2606    0.8353 C   0  0  0  0  0  0  0  0  0  0  0  0
    5.1477    0.1087   -0.2050 C   0  0  0  0  0  0  0  0  0  0  0  0
    3.5322   -1.7929   -0.4301 C   0  0  0  0  0  0  0  0  0  0  0  0
    0.5509    0.8065    0.0543 C   0  0  0  0  0  0  0  0  0  0  0  0
   -0.8661    0.3616    0.0202 C   0  0  0  0  0  0  0  0  0  0  0  0
   -1.1952   -0.9883    0.0731 C   0  0  0  0  0  0  0  0  0  0  0  0
   -1.9012    1.2787   -0.0651 C   0  0  0  0  0  0  0  0  0  0  0  0
   -2.5306   -1.3744    0.0394 C   0  0  0  0  0  0  0  0  0  0  0  0
   -3.4913   -0.3797   -0.0468 C   0  0  0  0  0  0  0  0  0  0  0  0
    3.2907    0.1600   -1.2717 H   0  0  0  0  0  0  0  0  0  0  0  0
    3.1782   -0.1805    1.7805 H   0  0  0  0  0  0  0  0  0  0  0  0
    2.9632    1.3470    0.9162 H   0  0  0  0  0  0  0  0  0  0  0  0
    5.5859   -0.3121    0.7063 H   0  0  0  0  0  0  0  0  0  0  0  0
    5.2626    1.1969   -0.1652 H   0  0  0  0  0  0  0  0  0  0  0  0
    5.7241   -0.2584   -1.0607 H   0  0  0  0  0  0  0  0  0  0  0  0
    3.8548   -2.2802    0.4965 H   0  0  0  0  0  0  0  0  0  0  0  0
    4.1459   -2.1875   -1.2474 H   0  0  0  0  0  0  0  0  0  0  0  0
    2.4980   -2.0912   -0.6300 H   0  0  0  0  0  0  0  0  0  0  0  0
    1.1139   -0.8913    1.1457 H   0  0  0  0  0  0  0  0  0  0  0  0
   -0.4408   -1.7681    0.1128 H   0  0  0  0  0  0  0  0  0  0  0  0
   -1.7143    2.3474   -0.1059 H   0  0  0  0  0  0  0  0  0  0  0  0
   -2.7952   -2.4263    0.0747 H   0  0  0  0  0  0  0  0  0  0  0  0
   -5.0666   -1.7002   -0.4638 H   0  0  0  0  0  0  0  0  0  0  0  0
   -5.5459   -0.0591   -0.1495 H   0  0  0  0  0  0  0  0  0  0  0  0
  1  9  2  0  0  0  0
  2  6  1  0  0  0  0
  2  9  1  0  0  0  0
  2 24  1  0  0  0  0
  3 12  1  0  0  0  0
  3 14  2  0  0  0  0
  4 14  1  0  0  0  0
  4 28  1  0  0  0  0
  4 29  1  0  0  0  0
  5  6  1  0  0  0  0
  5  7  1  0  0  0  0
  5  8  1  0  0  0  0
  5 15  1  0  0  0  0
  6 16  1  0  0  0  0
  6 17  1  0  0  0  0
  7 18  1  0  0  0  0
  7 19  1  0  0  0  0
  7 20  1  0  0  0  0
  8 21  1  0  0  0  0
  8 22  1  0  0  0  0
  8 23  1  0  0  0  0
  9 10  1  0  0  0  0
 10 11  1  0  0  0  0
 10 12  2  0  0  0  0
 11 13  2  0  0  0  0
 11 25  1  0  0  0  0
 12 26  1  0  0  0  0
 13 14  1  0  0  0  0
 13 27  1  0  0  0  0
M  END
>  <PUBCHEM_COMPOUND_CID>
59403155

>  <PUBCHEM_CONFORMER_RMSD>
0.6

>  <PUBCHEM_CONFORMER_DIVERSEORDER>
2
9
14
8
18
3
13
5
12
7
15
4
17
10
16
11
1
6

>  <PUBCHEM_MMFF94_PARTIAL_CHARGES>
17
1 -0.57
10 0.09
11 -0.15
12 0.16
13 -0.15
14 0.41
2 -0.73
24 0.37
25 0.15
26 0.15
27 0.15
28 0.4
29 0.4
3 -0.62
4 -0.9
6 0.3
9 0.54

>  <PUBCHEM_EFFECTIVE_ROTOR_COUNT>
4

>  <PUBCHEM_PHARMACOPHORE_FEATURES>
6
1 1 acceptor
1 2 donor
1 4 donor
3 3 4 14 cation
3 5 7 8 hydrophobe
6 3 10 11 12 13 14 rings

>  <PUBCHEM_HEAVY_ATOM_COUNT>
14

>  <PUBCHEM_ATOM_DEF_STEREO_COUNT>
0

>  <PUBCHEM_ATOM_UDEF_STEREO_COUNT>
0

>  <PUBCHEM_BOND_DEF_STEREO_COUNT>
0

>  <PUBCHEM_BOND_UDEF_STEREO_COUNT>
0

>  <PUBCHEM_ISOTOPIC_ATOM_COUNT>
0

>  <PUBCHEM_COMPONENT_COUNT>
1

>  <PUBCHEM_CACTVS_TAUTO_COUNT>
7

>  <PUBCHEM_CONFORMER_ID>
038A6B9300000002

>  <PUBCHEM_MMFF94_ENERGY>
34.2369

>  <PUBCHEM_FEATURE_SELFOVERLAP>
30.446

>  <PUBCHEM_SHAPE_FINGERPRINT>
10465860 71 18261969482952647820
11543360 7 14851611011310021219
12032990 46 18411700980433216361
13288520 33 18412827992889550005
13690532 89 18410291419622364391
14252887 29 18341896294653544586
14993402 34 18040712571703669693
15196674 1 18339643339256500486
15242433 33 18408605855375366542
15375358 24 18410009957704817474
15536298 74 18338796839936441752
17804303 29 18342457053920521609
17834072 33 18339080496745703644
17834072 8 18334004000505717317
17834074 16 18342740697987669950
18186145 218 16443353070029559028
1986462 14 18410573950897324861
200 152 17632571652518934151
20279233 1 18342740719636514826
20281407 28 18343584036338308538
20281475 54 18269839727197118338
20374829 77 18338798897468350166
20645477 70 18335699506758311127
20871999 31 18187643574556298404
21267235 1 18409175427841252227
22485316 2 18413387622991643406
23402539 116 16917063357211660417
23557571 272 18410579444809531588
23559900 14 18270392914394931632
2871803 45 18408604730336781510
42 15 18060422421490929611
449060 50 17917419986759605936
7364860 26 18267866279629425176
83771 10 18342739611350102202

>  <PUBCHEM_SHAPE_MULTIPOLES>
267.3
9.28
1.55
0.71
3.32
0.06
-0.05
2.44
0.73
-0.06
0.19
0.3
-0.01
0.25

>  <PUBCHEM_SHAPE_SELFOVERLAP>
541.201

>  <PUBCHEM_SHAPE_VOLUME>
155.6

>  <PUBCHEM_COORDINATE_TYPE>
2
5
10

$$$$
