59514468
 OpenBabel01182520543D

 19 20  0  0  0  0  0  0  0  0999 V2000
   -1.4261   -2.0690   -0.0052 O   0  0  0  0  0  0  0  0  0  0  0  0
   -1.9983    0.1934    0.0009 N   0  0  0  0  0  0  0  0  0  0  0  0
   -0.3084    1.8675   -0.0021 N   0  0  0  0  0  0  0  0  0  0  0  0
    1.9455    1.2747   -0.0007 N   0  0  0  0  0  0  0  0  0  0  0  0
    0.3180   -0.4990   -0.0003 C   0  0  0  0  0  0  0  0  0  0  0  0
   -1.1084   -0.8839   -0.0014 C   0  0  0  0  0  0  0  0  0  0  0  0
    0.6601    0.8505   -0.0012 C   0  0  0  0  0  0  0  0  0  0  0  0
    1.3312   -1.4555    0.0018 C   0  0  0  0  0  0  0  0  0  0  0  0
   -1.5482    1.5019   -0.0008 C   0  0  0  0  0  0  0  0  0  0  0  0
   -3.4294   -0.0663    0.0055 C   0  0  0  0  0  0  0  0  0  0  0  0
    2.6561   -1.0380    0.0025 C   0  0  0  0  0  0  0  0  0  0  0  0
    2.9079    0.3238    0.0011 C   0  0  0  0  0  0  0  0  0  0  0  0
    1.1081   -2.5183    0.0028 H   0  0  0  0  0  0  0  0  0  0  0  0
   -2.3453    2.2610   -0.0011 H   0  0  0  0  0  0  0  0  0  0  0  0
   -3.6823   -0.6484   -0.8861 H   0  0  0  0  0  0  0  0  0  0  0  0
   -4.0104    0.8593    0.0179 H   0  0  0  0  0  0  0  0  0  0  0  0
   -3.6742   -0.6673    0.8868 H   0  0  0  0  0  0  0  0  0  0  0  0
    3.4678   -1.7565    0.0040 H   0  0  0  0  0  0  0  0  0  0  0  0
    3.9259    0.6996    0.0015 H   0  0  0  0  0  0  0  0  0  0  0  0
  1  6  2  0  0  0  0
  2  6  1  0  0  0  0
  2  9  1  0  0  0  0
  2 10  1  0  0  0  0
  3  7  1  0  0  0  0
  3  9  2  0  0  0  0
  4  7  1  0  0  0  0
  4 12  2  0  0  0  0
  5  6  1  0  0  0  0
  5  7  2  0  0  0  0
  5  8  1  0  0  0  0
  8 11  2  0  0  0  0
  8 13  1  0  0  0  0
  9 14  1  0  0  0  0
 10 15  1  0  0  0  0
 10 16  1  0  0  0  0
 10 17  1  0  0  0  0
 11 12  1  0  0  0  0
 11 18  1  0  0  0  0
 12 19  1  0  0  0  0
M  END
>  <PUBCHEM_COMPOUND_CID>
59514468

>  <PUBCHEM_CONFORMER_RMSD>
0.4

>  <PUBCHEM_CONFORMER_DIVERSEORDER>
1

>  <PUBCHEM_MMFF94_PARTIAL_CHARGES>
16
1 -0.57
10 0.3
11 -0.15
12 0.16
13 0.15
14 0.06
18 0.15
19 0.15
2 -0.42
3 -0.63
4 -0.62
5 0.09
6 0.54
7 0.49
8 -0.15
9 0.45

>  <PUBCHEM_EFFECTIVE_ROTOR_COUNT>
0

>  <PUBCHEM_PHARMACOPHORE_FEATURES>
4
1 1 acceptor
1 4 acceptor
6 2 3 5 6 7 9 rings
6 4 5 7 8 11 12 rings

>  <PUBCHEM_HEAVY_ATOM_COUNT>
12

>  <PUBCHEM_ATOM_DEF_STEREO_COUNT>
0

>  <PUBCHEM_ATOM_UDEF_STEREO_COUNT>
0

>  <PUBCHEM_BOND_DEF_STEREO_COUNT>
0

>  <PUBCHEM_BOND_UDEF_STEREO_COUNT>
0

>  <PUBCHEM_ISOTOPIC_ATOM_COUNT>
0

>  <PUBCHEM_COMPONENT_COUNT>
1

>  <PUBCHEM_CACTVS_TAUTO_COUNT>
1

>  <PUBCHEM_CONFORMER_ID>
038C1E6400000001

>  <PUBCHEM_MMFF94_ENERGY>
29.842

>  <PUBCHEM_FEATURE_SELFOVERLAP>
20.333

>  <PUBCHEM_SHAPE_FINGERPRINT>
10967382 1 18410855477329155974
11206711 2 18264490581094093189
12032990 46 18409738356631125371
12423570 1 8895726002904137057
12524768 44 18412831269643901630
12897270 3 18411138052023190334
13380535 76 18411416219754198942
14325111 11 18410575037524226017
16945 1 18410855451701809476
17844478 74 17968105209220256881
193761 8 17689999354906021607
20201158 50 18410572877076470414
20588541 1 18411984671475953603
20871998 184 18201722885495987263
21040471 1 18266458711503407392
2334 1 17978229687960354338
23402539 116 18270666602505893591
23402655 69 18341602703737667901
23463225 33 18408604742688452650
23552423 10 18261113040514013294
23559900 14 18199191677682191174
2748010 2 18122625225742025894
5084963 1 18058162838990795307
528886 8 18411695525830148714
53812653 166 18200026386451826552

>  <PUBCHEM_SHAPE_MULTIPOLES>
226.14
4.29
1.88
0.59
0.59
0.04
0
0.28
0.01
0.13
0
-0.02
0.01
0

>  <PUBCHEM_SHAPE_SELFOVERLAP>
491.402

>  <PUBCHEM_SHAPE_VOLUME>
122.5

>  <PUBCHEM_COORDINATE_TYPE>
2
5
10

$$$$
