596269
 OpenBabel01182520543D

 22 22  0  0  0  0  0  0  0  0999 V2000
   -1.4546   -2.2686   -1.1158 O   0  0  0  0  0  0  0  0  0  0  0  0
    3.0102    1.0390    0.0196 O   0  0  0  0  0  0  0  0  0  0  0  0
    1.2094   -0.4760   -0.0128 N   0  0  0  0  0  0  0  0  0  0  0  0
    0.3177    1.7028    0.0129 N   0  0  0  0  0  0  0  0  0  0  0  0
   -1.4857   -2.2987    1.1770 N   0  0  0  0  0  0  0  0  0  0  0  0
   -1.1710   -0.2017   -0.0227 C   0  0  0  0  0  0  0  0  0  0  0  0
    0.0910    0.3702   -0.0072 C   0  0  0  0  0  0  0  0  0  0  0  0
   -2.2711    0.6487   -0.0175 C   0  0  0  0  0  0  0  0  0  0  0  0
   -2.0783    2.0256    0.0029 C   0  0  0  0  0  0  0  0  0  0  0  0
   -1.3836   -1.6425   -0.0451 C   0  0  0  0  0  0  0  0  0  0  0  0
   -0.7757    2.4979    0.0174 C   0  0  0  0  0  0  0  0  0  0  0  0
    2.5433   -0.0951    0.0006 C   0  0  0  0  0  0  0  0  0  0  0  0
    3.4485   -1.3015   -0.0093 C   0  0  0  0  0  0  0  0  0  0  0  0
   -3.2825    0.2511   -0.0296 H   0  0  0  0  0  0  0  0  0  0  0  0
    1.0209   -1.4752   -0.0276 H   0  0  0  0  0  0  0  0  0  0  0  0
   -2.9208    2.7076    0.0072 H   0  0  0  0  0  0  0  0  0  0  0  0
   -0.5713    3.5634    0.0334 H   0  0  0  0  0  0  0  0  0  0  0  0
    3.2625   -1.9131    0.8782 H   0  0  0  0  0  0  0  0  0  0  0  0
    4.4937   -0.9797   -0.0044 H   0  0  0  0  0  0  0  0  0  0  0  0
    3.2661   -1.8963   -0.9089 H   0  0  0  0  0  0  0  0  0  0  0  0
   -1.4219   -1.8045    2.0613 H   0  0  0  0  0  0  0  0  0  0  0  0
   -1.6273   -3.3024    1.2201 H   0  0  0  0  0  0  0  0  0  0  0  0
  1 10  2  0  0  0  0
  2 12  2  0  0  0  0
  3  7  1  0  0  0  0
  3 12  1  0  0  0  0
  3 15  1  0  0  0  0
  4  7  1  0  0  0  0
  4 11  2  0  0  0  0
  5 10  1  0  0  0  0
  5 21  1  0  0  0  0
  5 22  1  0  0  0  0
  6  7  2  0  0  0  0
  6  8  1  0  0  0  0
  6 10  1  0  0  0  0
  8  9  2  0  0  0  0
  8 14  1  0  0  0  0
  9 11  1  0  0  0  0
  9 16  1  0  0  0  0
 11 17  1  0  0  0  0
 12 13  1  0  0  0  0
 13 18  1  0  0  0  0
 13 19  1  0  0  0  0
 13 20  1  0  0  0  0
M  END
>  <PUBCHEM_COMPOUND_CID>
596269

>  <PUBCHEM_CONFORMER_RMSD>
0.6

>  <PUBCHEM_CONFORMER_DIVERSEORDER>
1
13
11
12
14
4
7
6
10
3
8
9
5
2

>  <PUBCHEM_MMFF94_PARTIAL_CHARGES>
19
1 -0.57
10 0.54
11 0.16
12 0.57
13 0.06
14 0.15
15 0.37
16 0.15
17 0.15
2 -0.57
21 0.37
22 0.37
3 -0.55
4 -0.62
5 -0.8
6 0.09
7 0.43
8 -0.15
9 -0.15

>  <PUBCHEM_EFFECTIVE_ROTOR_COUNT>
3

>  <PUBCHEM_PHARMACOPHORE_FEATURES>
6
1 1 acceptor
1 2 acceptor
1 3 donor
1 4 acceptor
1 5 donor
6 4 6 7 8 9 11 rings

>  <PUBCHEM_HEAVY_ATOM_COUNT>
13

>  <PUBCHEM_ATOM_DEF_STEREO_COUNT>
0

>  <PUBCHEM_ATOM_UDEF_STEREO_COUNT>
0

>  <PUBCHEM_BOND_DEF_STEREO_COUNT>
0

>  <PUBCHEM_BOND_UDEF_STEREO_COUNT>
0

>  <PUBCHEM_ISOTOPIC_ATOM_COUNT>
0

>  <PUBCHEM_COMPONENT_COUNT>
1

>  <PUBCHEM_CACTVS_TAUTO_COUNT>
9

>  <PUBCHEM_CONFORMER_ID>
0009192D00000001

>  <PUBCHEM_MMFF94_ENERGY>
39.3854

>  <PUBCHEM_FEATURE_SELFOVERLAP>
30.452

>  <PUBCHEM_SHAPE_FINGERPRINT>
1 1 17760927338127445045
12716758 59 18339073796491090392
13380535 76 18196650692364922670
15669948 3 18410572868971761158
16945 1 18412540990047531068
193761 8 18122625221832687085
20645476 183 17751103339256700606
20871998 184 18342746225388936503
21524375 3 18122342367970689565
23388829 49 17694212674805419308
23402539 116 18199170828903088445
23552423 10 18189618426494648084
23559900 14 18199746935301634166
257057 1 18053928821602332975
2748010 2 18051686943189533573
43471831 8 17902231118073952435
6333449 129 18340764849548407076
6338986 31 17983558986466111159
81228 2 18337100250318023449

>  <PUBCHEM_SHAPE_MULTIPOLES>
240.85
4.25
2.78
0.75
4.58
0.69
-0.02
-0.46
0
-1.64
-0.06
-0.19
0.4
0.02

>  <PUBCHEM_SHAPE_SELFOVERLAP>
500.896

>  <PUBCHEM_SHAPE_VOLUME>
136.1

>  <PUBCHEM_COORDINATE_TYPE>
2
5
10

$$$$
