59700106
 OpenBabel01182520543D

 27 27  0  0  0  0  0  0  0  0999 V2000
    1.7608   -1.5080   -0.6797 O   0  0  0  0  0  0  0  0  0  0  0  0
    1.5647    1.3749    1.4585 O   0  0  0  0  0  0  0  0  0  0  0  0
    2.1392   -0.4675    0.1880 N   0  0  0  0  0  0  0  0  0  0  0  0
   -2.1535    1.2632   -0.6889 N   0  0  0  0  0  0  0  0  0  0  0  0
   -0.1485    2.5282   -0.6706 N   0  0  0  0  0  0  0  0  0  0  0  0
   -0.1641    0.3399    0.3282 C   0  0  0  0  0  0  0  0  0  0  0  0
   -0.8592   -0.8199    0.6525 C   0  0  0  0  0  0  0  0  0  0  0  0
   -2.2008   -0.9393    0.3070 C   0  0  0  0  0  0  0  0  0  0  0  0
   -0.8507    1.3430   -0.3367 C   0  0  0  0  0  0  0  0  0  0  0  0
    1.2586    0.4573    0.6992 C   0  0  0  0  0  0  0  0  0  0  0  0
   -2.7963    0.1210   -0.3570 C   0  0  0  0  0  0  0  0  0  0  0  0
   -2.9721   -2.1667    0.6395 C   0  0  0  0  0  0  0  0  0  0  0  0
    3.5593   -0.4759    0.4852 C   0  0  0  0  0  0  0  0  0  0  0  0
    1.8624   -1.0504   -2.0251 C   0  0  0  0  0  0  0  0  0  0  0  0
   -0.3645   -1.6294    1.1842 H   0  0  0  0  0  0  0  0  0  0  0  0
   -3.8406    0.0886   -0.6519 H   0  0  0  0  0  0  0  0  0  0  0  0
   -3.3682   -2.0986    1.6574 H   0  0  0  0  0  0  0  0  0  0  0  0
   -3.8098   -2.3093   -0.0515 H   0  0  0  0  0  0  0  0  0  0  0  0
   -2.3401   -3.0583    0.5663 H   0  0  0  0  0  0  0  0  0  0  0  0
    3.8333   -1.4646    0.8640 H   0  0  0  0  0  0  0  0  0  0  0  0
    3.8059    0.2816    1.2336 H   0  0  0  0  0  0  0  0  0  0  0  0
    4.1219   -0.2690   -0.4287 H   0  0  0  0  0  0  0  0  0  0  0  0
    0.6057    2.8318   -0.0673 H   0  0  0  0  0  0  0  0  0  0  0  0
   -0.6744    3.2422   -1.1599 H   0  0  0  0  0  0  0  0  0  0  0  0
    1.4075   -1.8049   -2.6730 H   0  0  0  0  0  0  0  0  0  0  0  0
    2.9116   -0.9406   -2.3143 H   0  0  0  0  0  0  0  0  0  0  0  0
    1.3312   -0.1057   -2.1747 H   0  0  0  0  0  0  0  0  0  0  0  0
  1  3  1  0  0  0  0
  1 14  1  0  0  0  0
  2 10  2  0  0  0  0
  3 10  1  0  0  0  0
  3 13  1  0  0  0  0
  4  9  1  0  0  0  0
  4 11  2  0  0  0  0
  5  9  1  0  0  0  0
  5 23  1  0  0  0  0
  5 24  1  0  0  0  0
  6  7  1  0  0  0  0
  6  9  2  0  0  0  0
  6 10  1  0  0  0  0
  7  8  2  0  0  0  0
  7 15  1  0  0  0  0
  8 11  1  0  0  0  0
  8 12  1  0  0  0  0
 11 16  1  0  0  0  0
 12 17  1  0  0  0  0
 12 18  1  0  0  0  0
 12 19  1  0  0  0  0
 13 20  1  0  0  0  0
 13 21  1  0  0  0  0
 13 22  1  0  0  0  0
 14 25  1  0  0  0  0
 14 26  1  0  0  0  0
 14 27  1  0  0  0  0
M  END
>  <PUBCHEM_COMPOUND_CID>
59700106

>  <PUBCHEM_CONFORMER_RMSD>
0.6

>  <PUBCHEM_CONFORMER_DIVERSEORDER>
2
13
4
3
17
7
16
5
18
10
1
12
14
15
9
11
6
8

>  <PUBCHEM_MMFF94_PARTIAL_CHARGES>
18
1 -0.32
10 0.54
11 0.16
12 0.14
13 0.3
14 0.28
15 0.15
16 0.15
2 -0.57
23 0.4
24 0.4
3 -0.32
4 -0.62
5 -0.9
6 0.09
7 -0.15
8 -0.14
9 0.41

>  <PUBCHEM_EFFECTIVE_ROTOR_COUNT>
3

>  <PUBCHEM_PHARMACOPHORE_FEATURES>
5
1 2 acceptor
1 4 acceptor
1 5 cation
1 5 donor
6 4 6 7 8 9 11 rings

>  <PUBCHEM_HEAVY_ATOM_COUNT>
14

>  <PUBCHEM_ATOM_DEF_STEREO_COUNT>
0

>  <PUBCHEM_ATOM_UDEF_STEREO_COUNT>
0

>  <PUBCHEM_BOND_DEF_STEREO_COUNT>
0

>  <PUBCHEM_BOND_UDEF_STEREO_COUNT>
0

>  <PUBCHEM_ISOTOPIC_ATOM_COUNT>
0

>  <PUBCHEM_COMPONENT_COUNT>
1

>  <PUBCHEM_CACTVS_TAUTO_COUNT>
4

>  <PUBCHEM_CONFORMER_ID>
038EF38A00000002

>  <PUBCHEM_MMFF94_ENERGY>
51.1757

>  <PUBCHEM_FEATURE_SELFOVERLAP>
25.372

>  <PUBCHEM_SHAPE_FINGERPRINT>
12138202 97 18189883241161069583
12524768 44 18340758304197433665
12532896 13 17907295447146303833
12716758 59 18049162159517586446
14115302 16 17895759495522115335
14817 1 11829383004799695676
15207287 21 18055327202866507950
15219456 202 18341602767655814008
16945 1 18191315878952541429
17990270 104 18117555356404832401
18175812 5 18341884229805508328
18534176 82 18336821979539688420
20201158 50 18200869587115753758
20645476 183 16515682196216214571
20871998 22 18117561953722681475
21028194 46 10737295653164971238
21061003 4 17561362868467246154
22721475 48 18343586217791337146
22802520 49 18267871583760554767
23402539 116 18191848076924351349
23557571 272 18409175393818981188
23559900 14 18264759962387410138
2748010 2 18336817693188726641
568465 68 17846771936315789386
576247 118 17629234591256910270
7364860 26 18049165767548909249
77492 1 14764339461993518458
81228 2 18265341616200712329

>  <PUBCHEM_SHAPE_MULTIPOLES>
261.43
4.65
2.07
1.27
0.57
0.53
-0.43
-2.2
0.31
-0.81
-0.24
0.79
-0.16
1.03

>  <PUBCHEM_SHAPE_SELFOVERLAP>
536.437

>  <PUBCHEM_SHAPE_VOLUME>
151.6

>  <PUBCHEM_COORDINATE_TYPE>
2
5
10

$$$$
