59728841
 OpenBabel01182520543D

 29 29  0  0  0  0  0  0  0  0999 V2000
    4.2813   -0.6612   -0.0120 O   0  0  0  0  0  0  0  0  0  0  0  0
   -2.0337   -0.8531    0.0004 N   0  0  0  0  0  0  0  0  0  0  0  0
   -0.2840    0.7180    0.0005 N   0  0  0  0  0  0  0  0  0  0  0  0
    3.7929    1.5793    0.0024 N   0  0  0  0  0  0  0  0  0  0  0  0
   -3.0618    0.1726   -0.0009 C   0  0  0  0  0  0  0  0  0  0  0  0
   -2.8994    1.0325   -1.2575 C   0  0  0  0  0  0  0  0  0  0  0  0
   -4.4349   -0.5049   -0.0013 C   0  0  0  0  0  0  0  0  0  0  0  0
   -2.8934    1.0304    1.2553 C   0  0  0  0  0  0  0  0  0  0  0  0
   -0.6810   -0.5744    0.0011 C   0  0  0  0  0  0  0  0  0  0  0  0
    0.1887   -1.6529    0.0024 C   0  0  0  0  0  0  0  0  0  0  0  0
    1.5539   -1.3882    0.0031 C   0  0  0  0  0  0  0  0  0  0  0  0
    2.0010   -0.0716    0.0024 C   0  0  0  0  0  0  0  0  0  0  0  0
    1.0503    0.9362    0.0011 C   0  0  0  0  0  0  0  0  0  0  0  0
    3.4202    0.2373    0.0031 C   0  0  0  0  0  0  0  0  0  0  0  0
   -2.3022   -1.7748   -0.3310 H   0  0  0  0  0  0  0  0  0  0  0  0
   -2.0353    1.7011   -1.2396 H   0  0  0  0  0  0  0  0  0  0  0  0
   -2.8201    0.4107   -2.1573 H   0  0  0  0  0  0  0  0  0  0  0  0
   -3.7744    1.6813   -1.3879 H   0  0  0  0  0  0  0  0  0  0  0  0
   -4.5661   -1.1355   -0.8885 H   0  0  0  0  0  0  0  0  0  0  0  0
   -4.5576   -1.1496    0.8769 H   0  0  0  0  0  0  0  0  0  0  0  0
   -5.2449    0.2327    0.0079 H   0  0  0  0  0  0  0  0  0  0  0  0
   -2.0331    1.7038    1.2326 H   0  0  0  0  0  0  0  0  0  0  0  0
   -2.8061    0.4083    2.1541 H   0  0  0  0  0  0  0  0  0  0  0  0
   -3.7702    1.6755    1.3928 H   0  0  0  0  0  0  0  0  0  0  0  0
   -0.1653   -2.6789    0.0040 H   0  0  0  0  0  0  0  0  0  0  0  0
    2.2504   -2.2222    0.0046 H   0  0  0  0  0  0  0  0  0  0  0  0
    1.2860    1.9928    0.0002 H   0  0  0  0  0  0  0  0  0  0  0  0
    3.1572    2.3668    0.0094 H   0  0  0  0  0  0  0  0  0  0  0  0
    4.7783    1.8235   -0.0040 H   0  0  0  0  0  0  0  0  0  0  0  0
  1 14  2  0  0  0  0
  2  5  1  0  0  0  0
  2  9  1  0  0  0  0
  2 15  1  0  0  0  0
  3  9  2  0  0  0  0
  3 13  1  0  0  0  0
  4 14  1  0  0  0  0
  4 28  1  0  0  0  0
  4 29  1  0  0  0  0
  5  6  1  0  0  0  0
  5  7  1  0  0  0  0
  5  8  1  0  0  0  0
  6 16  1  0  0  0  0
  6 17  1  0  0  0  0
  6 18  1  0  0  0  0
  7 19  1  0  0  0  0
  7 20  1  0  0  0  0
  7 21  1  0  0  0  0
  8 22  1  0  0  0  0
  8 23  1  0  0  0  0
  8 24  1  0  0  0  0
  9 10  1  0  0  0  0
 10 11  2  0  0  0  0
 10 25  1  0  0  0  0
 11 12  1  0  0  0  0
 11 26  1  0  0  0  0
 12 13  2  0  0  0  0
 12 14  1  0  0  0  0
 13 27  1  0  0  0  0
M  END
>  <PUBCHEM_COMPOUND_CID>
59728841

>  <PUBCHEM_CONFORMER_RMSD>
0.6

>  <PUBCHEM_CONFORMER_DIVERSEORDER>
1
9
4
8
5
2
10
3
6
7

>  <PUBCHEM_MMFF94_PARTIAL_CHARGES>
17
1 -0.57
10 -0.15
11 -0.15
12 0.09
13 0.16
14 0.54
15 0.4
2 -0.87
25 0.15
26 0.15
27 0.15
28 0.37
29 0.37
3 -0.62
4 -0.8
5 0.37
9 0.41

>  <PUBCHEM_EFFECTIVE_ROTOR_COUNT>
3

>  <PUBCHEM_PHARMACOPHORE_FEATURES>
6
1 1 acceptor
1 2 donor
1 4 donor
3 2 3 9 cation
4 5 6 7 8 hydrophobe
6 3 9 10 11 12 13 rings

>  <PUBCHEM_HEAVY_ATOM_COUNT>
14

>  <PUBCHEM_ATOM_DEF_STEREO_COUNT>
0

>  <PUBCHEM_ATOM_UDEF_STEREO_COUNT>
0

>  <PUBCHEM_BOND_DEF_STEREO_COUNT>
0

>  <PUBCHEM_BOND_UDEF_STEREO_COUNT>
0

>  <PUBCHEM_ISOTOPIC_ATOM_COUNT>
0

>  <PUBCHEM_COMPONENT_COUNT>
1

>  <PUBCHEM_CACTVS_TAUTO_COUNT>
7

>  <PUBCHEM_CONFORMER_ID>
038F63C900000001

>  <PUBCHEM_MMFF94_ENERGY>
53.6406

>  <PUBCHEM_FEATURE_SELFOVERLAP>
30.446

>  <PUBCHEM_SHAPE_FINGERPRINT>
10219947 1 18259706700686001268
10608611 8 18261386719951333349
11132069 177 18410566301813784736
11471102 20 18410853265779655804
11543360 7 15697711618722095048
12346645 44 18343023280696424619
124424 183 16950278498989010373
13081056 2 18335420175060010476
13380535 76 18410857672116044690
14144814 61 18412263908911807809
14289901 80 16587748646102088888
14325111 11 18410856577020112320
15219456 202 18115303367570388183
15309172 13 18409733945636343939
15775835 57 18411700989234173559
16945 1 18338798909851812746
17844478 74 17967822617610091125
18186145 218 18413394224319447700
18522853 276 18344148098704129289
200 152 18273207621755261831
20279233 1 17458350719314658699
20645477 70 18191015721079693983
21524375 3 18410855486077742394
22854114 59 18334576858268286041
231179 274 18040426668520692566
23402539 116 17418087702632020325
23402655 69 18341602682378804429
23557571 272 17095804313523434983
4990 188 17917439709022400430
5104073 3 18409730651211669561
63268167 104 18339640049332326115
633830 44 18131080311488706092
69090 78 18342453776681289167

>  <PUBCHEM_SHAPE_MULTIPOLES>
267.3
7.72
1.47
0.83
0.82
0.11
0
-1.2
0.01
0.43
0
-0.72
-0.24
0

>  <PUBCHEM_SHAPE_SELFOVERLAP>
550.754

>  <PUBCHEM_SHAPE_VOLUME>
153.6

>  <PUBCHEM_COORDINATE_TYPE>
2
5
10

$$$$
