59970224
 OpenBabel01182520543D

 20 20  0  0  0  0  0  0  0  0999 V2000
   -0.3163   -2.9394   -0.3226 I   0  0  0  0  0  0  0  0  0  0  0  0
   -2.2450   -0.6332    1.1636 O   0  0  0  0  0  0  0  0  0  0  0  0
   -2.4405    0.8426   -0.6143 N   0  0  0  0  0  0  0  0  0  0  0  0
    1.7273    1.4695    0.1865 N   0  0  0  0  0  0  0  0  0  0  0  0
    3.8590    0.4675   -0.1682 N   0  0  0  0  0  0  0  0  0  0  0  0
   -0.2570    0.0887    0.1511 C   0  0  0  0  0  0  0  0  0  0  0  0
    0.5213   -1.0361   -0.0986 C   0  0  0  0  0  0  0  0  0  0  0  0
   -1.7073    0.0550    0.2794 C   0  0  0  0  0  0  0  0  0  0  0  0
    0.3886    1.3076    0.2842 C   0  0  0  0  0  0  0  0  0  0  0  0
    1.9019   -0.9097   -0.2058 C   0  0  0  0  0  0  0  0  0  0  0  0
    2.4510    0.3538   -0.0566 C   0  0  0  0  0  0  0  0  0  0  0  0
   -3.8829    0.9337   -0.5988 C   0  0  0  0  0  0  0  0  0  0  0  0
   -0.1582    2.2242    0.4853 H   0  0  0  0  0  0  0  0  0  0  0  0
    2.5366   -1.7694   -0.4010 H   0  0  0  0  0  0  0  0  0  0  0  0
   -1.9453    1.3620   -1.3334 H   0  0  0  0  0  0  0  0  0  0  0  0
   -4.2805    0.1883   -1.2918 H   0  0  0  0  0  0  0  0  0  0  0  0
   -4.1700    1.9343   -0.9301 H   0  0  0  0  0  0  0  0  0  0  0  0
   -4.2703    0.7457    0.4055 H   0  0  0  0  0  0  0  0  0  0  0  0
    4.4283   -0.3326    0.0794 H   0  0  0  0  0  0  0  0  0  0  0  0
    4.2555    1.3919   -0.0525 H   0  0  0  0  0  0  0  0  0  0  0  0
  1  7  1  0  0  0  0
  2  8  2  0  0  0  0
  3  8  1  0  0  0  0
  3 12  1  0  0  0  0
  3 15  1  0  0  0  0
  4  9  1  0  0  0  0
  4 11  2  0  0  0  0
  5 11  1  0  0  0  0
  5 19  1  0  0  0  0
  5 20  1  0  0  0  0
  6  7  1  0  0  0  0
  6  8  1  0  0  0  0
  6  9  2  0  0  0  0
  7 10  2  0  0  0  0
  9 13  1  0  0  0  0
 10 11  1  0  0  0  0
 10 14  1  0  0  0  0
 12 16  1  0  0  0  0
 12 17  1  0  0  0  0
 12 18  1  0  0  0  0
M  END
>  <PUBCHEM_COMPOUND_CID>
59970224

>  <PUBCHEM_CONFORMER_RMSD>
0.6

>  <PUBCHEM_CONFORMER_DIVERSEORDER>
1
2

>  <PUBCHEM_MMFF94_PARTIAL_CHARGES>
17
1 -0.08
10 -0.15
11 0.41
12 0.3
13 0.15
14 0.15
15 0.37
19 0.4
2 -0.57
20 0.4
3 -0.73
4 -0.62
5 -0.9
6 0.09
7 0.08
8 0.54
9 0.16

>  <PUBCHEM_EFFECTIVE_ROTOR_COUNT>
2

>  <PUBCHEM_PHARMACOPHORE_FEATURES>
6
1 1 hydrophobe
1 2 acceptor
1 3 donor
1 5 donor
3 4 5 11 cation
6 4 6 7 9 10 11 rings

>  <PUBCHEM_HEAVY_ATOM_COUNT>
12

>  <PUBCHEM_ATOM_DEF_STEREO_COUNT>
0

>  <PUBCHEM_ATOM_UDEF_STEREO_COUNT>
0

>  <PUBCHEM_BOND_DEF_STEREO_COUNT>
0

>  <PUBCHEM_BOND_UDEF_STEREO_COUNT>
0

>  <PUBCHEM_ISOTOPIC_ATOM_COUNT>
0

>  <PUBCHEM_COMPONENT_COUNT>
1

>  <PUBCHEM_CACTVS_TAUTO_COUNT>
7

>  <PUBCHEM_CONFORMER_ID>
039312B000000001

>  <PUBCHEM_MMFF94_ENERGY>
38.2803

>  <PUBCHEM_FEATURE_SELFOVERLAP>
30.446

>  <PUBCHEM_SHAPE_FINGERPRINT>
1 1 18338230466714542775
11031198 65 18337674118373521957
11471102 20 18339356349715764237
12138202 97 18339931514456065742
13380535 76 18334292033480997579
14251717 144 18269265773326722039
14325111 11 18409449197646458420
14911166 2 18342744013881653844
14993402 34 18272088292605017620
15219456 202 18261399905864714483
15775835 57 18411979161222843263
16945 1 18272097110273083496
193761 8 17764023962398198624
20201158 50 18336546010705743841
20645476 183 17750253524559590326
20645477 70 18196363724731624271
21040471 1 18340206400926212946
21501502 16 17908147921029225586
23402539 116 18272922822136247540
23402655 69 18268981013080059165
23552423 10 17909552757402594599
23559900 14 18201168737048718548
241688 4 16609695662570342475
25 1 18337105649408289061
257057 1 17112120842578463047
2748010 2 18339093630465778102
3060560 45 18340196406442448143
528886 8 18412257328863713201
63268167 104 18201439155550344866
81228 2 17763172944672525867

>  <PUBCHEM_SHAPE_MULTIPOLES>
238.08
4.93
2.39
0.79
1.01
2.46
0.06
-2.64
-0.8
0.1
-0.21
0.38
0.09
0.35

>  <PUBCHEM_SHAPE_SELFOVERLAP>
471.349

>  <PUBCHEM_SHAPE_VOLUME>
146.5

>  <PUBCHEM_COORDINATE_TYPE>
2
5
10

$$$$
