602287
 OpenBabel01182520543D

 30 31  0  0  0  0  0  0  0  0999 V2000
    1.7426   -2.4834    1.1394 O   0  0  0  0  0  0  0  0  0  0  0  0
    0.1034    0.2461   -0.0365 N   0  0  0  0  0  0  0  0  0  0  0  0
    1.8500    1.8494   -0.0464 N   0  0  0  0  0  0  0  0  0  0  0  0
    1.8069   -2.5543   -1.1518 N   0  0  0  0  0  0  0  0  0  0  0  0
   -0.9334    1.2453   -0.0875 C   0  0  0  0  0  0  0  0  0  0  0  0
   -2.2992    0.6479   -0.0380 C   0  0  0  0  0  0  0  0  0  0  0  0
    1.4591    0.5406   -0.0165 C   0  0  0  0  0  0  0  0  0  0  0  0
    2.3874   -0.5064    0.0337 C   0  0  0  0  0  0  0  0  0  0  0  0
   -2.9496    0.2954   -1.2206 C   0  0  0  0  0  0  0  0  0  0  0  0
   -2.9264    0.4421    1.1907 C   0  0  0  0  0  0  0  0  0  0  0  0
    3.7444   -0.2036    0.0535 C   0  0  0  0  0  0  0  0  0  0  0  0
   -4.2271   -0.2629   -1.1744 C   0  0  0  0  0  0  0  0  0  0  0  0
   -4.2038   -0.1162    1.2370 C   0  0  0  0  0  0  0  0  0  0  0  0
   -4.8541   -0.4686    0.0544 C   0  0  0  0  0  0  0  0  0  0  0  0
    4.1552    1.1244    0.0234 C   0  0  0  0  0  0  0  0  0  0  0  0
    1.9672   -1.9005    0.0654 C   0  0  0  0  0  0  0  0  0  0  0  0
    3.1774    2.1048   -0.0259 C   0  0  0  0  0  0  0  0  0  0  0  0
   -0.8302    1.8447   -1.0015 H   0  0  0  0  0  0  0  0  0  0  0  0
   -0.8182    1.9488    0.7476 H   0  0  0  0  0  0  0  0  0  0  0  0
   -0.1552   -0.6964   -0.3101 H   0  0  0  0  0  0  0  0  0  0  0  0
   -2.4710    0.4486   -2.1842 H   0  0  0  0  0  0  0  0  0  0  0  0
   -2.4297    0.7104    2.1195 H   0  0  0  0  0  0  0  0  0  0  0  0
    4.4904   -0.9930    0.0926 H   0  0  0  0  0  0  0  0  0  0  0  0
   -4.7333   -0.5380   -2.0951 H   0  0  0  0  0  0  0  0  0  0  0  0
   -4.6919   -0.2770    2.1938 H   0  0  0  0  0  0  0  0  0  0  0  0
   -5.8486   -0.9036    0.0905 H   0  0  0  0  0  0  0  0  0  0  0  0
    5.2076    1.3839    0.0381 H   0  0  0  0  0  0  0  0  0  0  0  0
    3.4454    3.1558   -0.0510 H   0  0  0  0  0  0  0  0  0  0  0  0
    1.9779   -2.0915   -2.0389 H   0  0  0  0  0  0  0  0  0  0  0  0
    1.5096   -3.5235   -1.1883 H   0  0  0  0  0  0  0  0  0  0  0  0
  1 16  2  0  0  0  0
  2  5  1  0  0  0  0
  2  7  1  0  0  0  0
  2 20  1  0  0  0  0
  3  7  1  0  0  0  0
  3 17  2  0  0  0  0
  4 16  1  0  0  0  0
  4 29  1  0  0  0  0
  4 30  1  0  0  0  0
  5  6  1  0  0  0  0
  5 18  1  0  0  0  0
  5 19  1  0  0  0  0
  6  9  2  0  0  0  0
  6 10  1  0  0  0  0
  7  8  2  0  0  0  0
  8 11  1  0  0  0  0
  8 16  1  0  0  0  0
  9 12  1  0  0  0  0
  9 21  1  0  0  0  0
 10 13  2  0  0  0  0
 10 22  1  0  0  0  0
 11 15  2  0  0  0  0
 11 23  1  0  0  0  0
 12 14  2  0  0  0  0
 12 24  1  0  0  0  0
 13 14  1  0  0  0  0
 13 25  1  0  0  0  0
 14 26  1  0  0  0  0
 15 17  1  0  0  0  0
 15 27  1  0  0  0  0
 17 28  1  0  0  0  0
M  END
>  <PUBCHEM_COMPOUND_CID>
602287

>  <PUBCHEM_CONFORMER_RMSD>
0.6

>  <PUBCHEM_CONFORMER_DIVERSEORDER>
2
23
36
6
38
37
31
18
40
14
28
33
5
34
3
4
35
17
19
27
39
21
30
16
8
24
13
9
29
7
15
12
22
26
10
32
1
11
20
25

>  <PUBCHEM_MMFF94_PARTIAL_CHARGES>
28
1 -0.57
10 -0.15
11 -0.15
12 -0.15
13 -0.15
14 -0.15
15 -0.15
16 0.54
17 0.16
2 -0.87
20 0.4
21 0.15
22 0.15
23 0.15
24 0.15
25 0.15
26 0.15
27 0.15
28 0.15
29 0.37
3 -0.62
30 0.37
4 -0.8
5 0.51
6 -0.14
7 0.41
8 0.09
9 -0.15

>  <PUBCHEM_EFFECTIVE_ROTOR_COUNT>
4

>  <PUBCHEM_PHARMACOPHORE_FEATURES>
7
1 1 acceptor
1 2 cation
1 2 donor
1 3 acceptor
1 4 donor
6 3 7 8 11 15 17 rings
6 6 9 10 12 13 14 rings

>  <PUBCHEM_HEAVY_ATOM_COUNT>
17

>  <PUBCHEM_ATOM_DEF_STEREO_COUNT>
0

>  <PUBCHEM_ATOM_UDEF_STEREO_COUNT>
0

>  <PUBCHEM_BOND_DEF_STEREO_COUNT>
0

>  <PUBCHEM_BOND_UDEF_STEREO_COUNT>
0

>  <PUBCHEM_ISOTOPIC_ATOM_COUNT>
0

>  <PUBCHEM_COMPONENT_COUNT>
1

>  <PUBCHEM_CACTVS_TAUTO_COUNT>
7

>  <PUBCHEM_CONFORMER_ID>
000930AF00000002

>  <PUBCHEM_MMFF94_ENERGY>
59.4852

>  <PUBCHEM_FEATURE_SELFOVERLAP>
35.521

>  <PUBCHEM_SHAPE_FINGERPRINT>
10366900 7 18334019405767801041
10616163 171 18200875192422972663
11615757 297 18272932734636163697
12107183 9 17552654551908048697
12236239 1 17775569753507528337
12596602 18 17774459277566783275
13836976 161 18336829783695836076
13862211 1 18337669703770042850
14251717 144 18411416215606521988
14386348 63 17748831817374983747
14844126 61 16243209728445750498
14848160 33 18262512585593512955
15375358 24 17822007623085714289
15375462 189 18060419114408413881
15635459 17 18186523185292911155
19050596 39 18131634486818660361
200 152 18341608235518498529
20279233 1 17603868901322899905
204376 136 18264208191621910732
20645477 70 18339070510967722735
21054139 6 18128524045548646294
2255824 54 18270682081578993260
23402539 116 15357687617561718397
23557571 272 16588017979443585557
23559900 14 17022895714433335928
23596394 208 18187075122928904599
2871803 45 18335417950245826084
3060560 45 18409729595267074588
33824 294 18335137604972108418
474229 33 18337109072618523752
58051976 378 18408040723251251362
581208 293 18410853269884868400
602551 16 15338545145955272141
81539 233 18259985998341074774
8272917 22 18341898450510764853
9709674 26 18335707113472621827

>  <PUBCHEM_SHAPE_MULTIPOLES>
329.04
9.52
2.12
1.08
6.1
1.09
0.01
-0.67
0.15
-2.84
-0.04
1.08
0.26
-0.09

>  <PUBCHEM_SHAPE_SELFOVERLAP>
702.077

>  <PUBCHEM_SHAPE_VOLUME>
181.2

>  <PUBCHEM_COORDINATE_TYPE>
2
5
10

$$$$
