60725755
 OpenBabel01182520543D

 24 24  0  0  0  0  0  0  0  0999 V2000
   -1.0114   -2.4479   -1.1188 O   0  0  0  0  0  0  0  0  0  0  0  0
    1.1411    0.0013   -0.1689 N   0  0  0  0  0  0  0  0  0  0  0  0
   -0.3252    1.8592   -0.0314 N   0  0  0  0  0  0  0  0  0  0  0  0
   -0.8592   -2.4854    1.1690 N   0  0  0  0  0  0  0  0  0  0  0  0
   -0.1758    0.5160   -0.0666 C   0  0  0  0  0  0  0  0  0  0  0  0
   -1.2282   -0.3834   -0.0063 C   0  0  0  0  0  0  0  0  0  0  0  0
    2.2922    0.8409   -0.2372 C   0  0  0  0  0  0  0  0  0  0  0  0
   -2.5168    0.1288    0.0966 C   0  0  0  0  0  0  0  0  0  0  0  0
   -2.7109    1.5051    0.1356 C   0  0  0  0  0  0  0  0  0  0  0  0
   -1.0352   -1.8265   -0.0432 C   0  0  0  0  0  0  0  0  0  0  0  0
   -1.5922    2.3200    0.0691 C   0  0  0  0  0  0  0  0  0  0  0  0
    3.5108   -0.0185   -0.3433 C   0  0  0  0  0  0  0  0  0  0  0  0
    4.5108   -0.0096    0.5455 C   0  0  0  0  0  0  0  0  0  0  0  0
    1.2683   -0.9507    0.1607 H   0  0  0  0  0  0  0  0  0  0  0  0
    2.2448    1.4862   -1.1222 H   0  0  0  0  0  0  0  0  0  0  0  0
    2.3480    1.4889    0.6457 H   0  0  0  0  0  0  0  0  0  0  0  0
   -3.3770   -0.5336    0.1475 H   0  0  0  0  0  0  0  0  0  0  0  0
   -3.7063    1.9268    0.2156 H   0  0  0  0  0  0  0  0  0  0  0  0
   -1.6896    3.4003    0.0958 H   0  0  0  0  0  0  0  0  0  0  0  0
    3.5901   -0.6758   -1.2059 H   0  0  0  0  0  0  0  0  0  0  0  0
   -0.8676   -1.9930    2.0565 H   0  0  0  0  0  0  0  0  0  0  0  0
   -0.7143   -3.4891    1.2011 H   0  0  0  0  0  0  0  0  0  0  0  0
    5.3736   -0.6521    0.4077 H   0  0  0  0  0  0  0  0  0  0  0  0
    4.4881    0.6317    1.4196 H   0  0  0  0  0  0  0  0  0  0  0  0
  1 10  2  0  0  0  0
  2  5  1  0  0  0  0
  2  7  1  0  0  0  0
  2 14  1  0  0  0  0
  3  5  1  0  0  0  0
  3 11  2  0  0  0  0
  4 10  1  0  0  0  0
  4 21  1  0  0  0  0
  4 22  1  0  0  0  0
  5  6  2  0  0  0  0
  6  8  1  0  0  0  0
  6 10  1  0  0  0  0
  7 12  1  0  0  0  0
  7 15  1  0  0  0  0
  7 16  1  0  0  0  0
  8  9  2  0  0  0  0
  8 17  1  0  0  0  0
  9 11  1  0  0  0  0
  9 18  1  0  0  0  0
 11 19  1  0  0  0  0
 12 13  2  0  0  0  0
 12 20  1  0  0  0  0
 13 23  1  0  0  0  0
 13 24  1  0  0  0  0
M  END
>  <PUBCHEM_COMPOUND_CID>
60725755

>  <PUBCHEM_CONFORMER_RMSD>
0.6

>  <PUBCHEM_CONFORMER_DIVERSEORDER>
2
14
16
4
15
17
5
18
6
12
8
10
9
7
13
11
3
1

>  <PUBCHEM_MMFF94_PARTIAL_CHARGES>
22
1 -0.57
10 0.54
11 0.16
12 -0.29
13 -0.3
14 0.4
17 0.15
18 0.15
19 0.15
2 -0.87
20 0.15
21 0.37
22 0.37
23 0.15
24 0.15
3 -0.62
4 -0.8
5 0.41
6 0.09
7 0.51
8 -0.15
9 -0.15

>  <PUBCHEM_EFFECTIVE_ROTOR_COUNT>
4

>  <PUBCHEM_PHARMACOPHORE_FEATURES>
7
1 1 acceptor
1 13 hydrophobe
1 2 cation
1 2 donor
1 3 acceptor
1 4 donor
6 3 5 6 8 9 11 rings

>  <PUBCHEM_HEAVY_ATOM_COUNT>
13

>  <PUBCHEM_ATOM_DEF_STEREO_COUNT>
0

>  <PUBCHEM_ATOM_UDEF_STEREO_COUNT>
0

>  <PUBCHEM_BOND_DEF_STEREO_COUNT>
0

>  <PUBCHEM_BOND_UDEF_STEREO_COUNT>
0

>  <PUBCHEM_ISOTOPIC_ATOM_COUNT>
0

>  <PUBCHEM_COMPONENT_COUNT>
1

>  <PUBCHEM_CACTVS_TAUTO_COUNT>
7

>  <PUBCHEM_CONFORMER_ID>
039E99FB00000002

>  <PUBCHEM_MMFF94_ENERGY>
44.0502

>  <PUBCHEM_FEATURE_SELFOVERLAP>
35.521

>  <PUBCHEM_SHAPE_FINGERPRINT>
11357001 24 18261681466424396635
12500047 106 18341886364868510560
12716758 59 18411695508666181856
13024252 1 13912323477840266621
13380535 76 18340487768449750006
15042514 8 18409735088198066419
15669948 3 18410296951714321724
16945 1 18410303522555484965
193761 8 17907018735546696285
20510252 161 18200877270844285024
20524608 308 18272088301131817566
20645476 183 17677638443381208038
20871998 184 18270690868918226007
21501502 16 18196655313881874652
21524375 3 18338516318315571389
23402539 116 18271515460026930453
23419403 2 15839273805280981715
23559900 14 18272369742650720316
23728640 28 18410005542331082218
257057 1 17766831006851707535
2748010 2 18122640365638972533
305870 269 18046909273071985024
3071541 12 17260472470304187373
366044 4 18339642248419040881
43471831 8 18190181187400956219
5706482 22 18338794516179273473
6333449 129 18342173362587757316
6338986 31 17695616742527303190
69090 78 18343297050575646244
7364860 26 17621601609891106485
81228 2 18265605662041678905
9709674 26 18343024380836170310

>  <PUBCHEM_SHAPE_MULTIPOLES>
246.72
5.52
2.56
0.79
8.23
1.11
-0.02
-1.42
-0.57
-2.09
-0.06
0.02
0.38
-0.11

>  <PUBCHEM_SHAPE_SELFOVERLAP>
505.784

>  <PUBCHEM_SHAPE_VOLUME>
141.3

>  <PUBCHEM_COORDINATE_TYPE>
2
5
10

$$$$
