60753376
 OpenBabel01182520543D

 29 29  0  0  0  0  0  0  0  0999 V2000
   -2.5692   -1.4316   -0.7026 O   0  0  0  0  0  0  0  0  0  0  0  0
    3.5005    0.1754    0.1526 N   0  0  0  0  0  0  0  0  0  0  0  0
   -2.8100    0.7758   -0.0343 N   0  0  0  0  0  0  0  0  0  0  0  0
    1.3634    1.1557   -0.2330 N   0  0  0  0  0  0  0  0  0  0  0  0
    2.0950    0.0484    0.0249 C   0  0  0  0  0  0  0  0  0  0  0  0
   -0.6077   -0.2441   -0.2124 C   0  0  0  0  0  0  0  0  0  0  0  0
    1.5565   -1.2194    0.1752 C   0  0  0  0  0  0  0  0  0  0  0  0
    0.1785   -1.3599    0.0526 C   0  0  0  0  0  0  0  0  0  0  0  0
   -2.0494   -0.3583   -0.3458 C   0  0  0  0  0  0  0  0  0  0  0  0
   -4.2535    0.8130   -0.0950 C   0  0  0  0  0  0  0  0  0  0  0  0
    0.0277    0.9800   -0.3452 C   0  0  0  0  0  0  0  0  0  0  0  0
    4.1309    1.4679    0.0002 C   0  0  0  0  0  0  0  0  0  0  0  0
    4.3138   -0.9880    0.4283 C   0  0  0  0  0  0  0  0  0  0  0  0
   -4.8766    0.1850    1.1346 C   0  0  0  0  0  0  0  0  0  0  0  0
    2.1312   -2.1137    0.3826 H   0  0  0  0  0  0  0  0  0  0  0  0
   -0.2655   -2.3448    0.1705 H   0  0  0  0  0  0  0  0  0  0  0  0
   -4.5528    1.8621   -0.1816 H   0  0  0  0  0  0  0  0  0  0  0  0
   -4.5819    0.2832   -0.9952 H   0  0  0  0  0  0  0  0  0  0  0  0
   -0.5047    1.8958   -0.5797 H   0  0  0  0  0  0  0  0  0  0  0  0
   -2.3530    1.6117    0.3145 H   0  0  0  0  0  0  0  0  0  0  0  0
    5.2173    1.4149    0.1277 H   0  0  0  0  0  0  0  0  0  0  0  0
    3.7516    2.1747    0.7464 H   0  0  0  0  0  0  0  0  0  0  0  0
    3.9414    1.8760   -0.9987 H   0  0  0  0  0  0  0  0  0  0  0  0
    5.3759   -0.7260    0.4991 H   0  0  0  0  0  0  0  0  0  0  0  0
    4.2363   -1.7310   -0.3735 H   0  0  0  0  0  0  0  0  0  0  0  0
    4.0487   -1.4448    1.3885 H   0  0  0  0  0  0  0  0  0  0  0  0
   -4.5960   -0.8690    1.2299 H   0  0  0  0  0  0  0  0  0  0  0  0
   -4.5498    0.6991    2.0446 H   0  0  0  0  0  0  0  0  0  0  0  0
   -5.9680    0.2434    1.0812 H   0  0  0  0  0  0  0  0  0  0  0  0
  1  9  2  0  0  0  0
  2  5  1  0  0  0  0
  2 12  1  0  0  0  0
  2 13  1  0  0  0  0
  3  9  1  0  0  0  0
  3 10  1  0  0  0  0
  3 20  1  0  0  0  0
  4  5  2  0  0  0  0
  4 11  1  0  0  0  0
  5  7  1  0  0  0  0
  6  8  1  0  0  0  0
  6  9  1  0  0  0  0
  6 11  2  0  0  0  0
  7  8  2  0  0  0  0
  7 15  1  0  0  0  0
  8 16  1  0  0  0  0
 10 14  1  0  0  0  0
 10 17  1  0  0  0  0
 10 18  1  0  0  0  0
 11 19  1  0  0  0  0
 12 21  1  0  0  0  0
 12 22  1  0  0  0  0
 12 23  1  0  0  0  0
 13 24  1  0  0  0  0
 13 25  1  0  0  0  0
 13 26  1  0  0  0  0
 14 27  1  0  0  0  0
 14 28  1  0  0  0  0
 14 29  1  0  0  0  0
M  END
>  <PUBCHEM_COMPOUND_CID>
60753376

>  <PUBCHEM_CONFORMER_RMSD>
0.6

>  <PUBCHEM_CONFORMER_DIVERSEORDER>
1
12
10
3
7
6
2
11
9
4
8
5

>  <PUBCHEM_MMFF94_PARTIAL_CHARGES>
17
1 -0.57
10 0.3
11 0.16
12 0.37
13 0.37
15 0.15
16 0.15
19 0.15
2 -0.84
20 0.37
3 -0.73
4 -0.62
5 0.41
6 0.09
7 -0.15
8 -0.15
9 0.54

>  <PUBCHEM_EFFECTIVE_ROTOR_COUNT>
4

>  <PUBCHEM_PHARMACOPHORE_FEATURES>
4
1 1 acceptor
1 3 donor
3 2 4 5 cation
6 4 5 6 7 8 11 rings

>  <PUBCHEM_HEAVY_ATOM_COUNT>
14

>  <PUBCHEM_ATOM_DEF_STEREO_COUNT>
0

>  <PUBCHEM_ATOM_UDEF_STEREO_COUNT>
0

>  <PUBCHEM_BOND_DEF_STEREO_COUNT>
0

>  <PUBCHEM_BOND_UDEF_STEREO_COUNT>
0

>  <PUBCHEM_ISOTOPIC_ATOM_COUNT>
0

>  <PUBCHEM_COMPONENT_COUNT>
1

>  <PUBCHEM_CACTVS_TAUTO_COUNT>
2

>  <PUBCHEM_CONFORMER_ID>
039F05E000000001

>  <PUBCHEM_MMFF94_ENERGY>
43.3533

>  <PUBCHEM_FEATURE_SELFOVERLAP>
20.297

>  <PUBCHEM_SHAPE_FINGERPRINT>
11062470 55 16056879122022282089
11132069 177 18411688890216374608
11471102 20 18409161100025401804
12251169 10 18408606959366318103
12500047 106 16343695543437564391
13581323 91 14634868647597020186
13675066 3 18186520994743480405
13760787 5 18259697913330684894
14252887 29 18260556575792611939
14325111 11 18410288146899430998
14445660 50 18342740727888657291
14943859 89 18413950589908552171
15375462 189 18260540104545539618
15775835 57 18342176678402541693
17834072 33 18202274840638683167
18186145 218 18335696152884595396
19026448 4 15140948548515940318
20645477 70 18340483365982093486
212847 35 18202281398959084496
23402539 116 17561356258787254221
23402655 69 18202281437703259364
23559900 14 17917992806916910840
42 15 18186804655958654625
449060 50 18411140229708785445
449060 62 18411135849074219528
5104073 3 18339637936192885218
53655031 270 18341048527848479056

>  <PUBCHEM_SHAPE_MULTIPOLES>
267.3
9.09
1.46
0.76
3.04
0.06
0.09
-1.71
2.19
-0.73
-0.08
0.49
0.05
-0.33

>  <PUBCHEM_SHAPE_SELFOVERLAP>
541.475

>  <PUBCHEM_SHAPE_VOLUME>
156

>  <PUBCHEM_COORDINATE_TYPE>
2
5
10

$$$$
