61357616
 OpenBabel01182520543D

 19 19  0  0  0  0  0  0  0  0999 V2000
    2.4423   -0.8546   -1.1183 O   0  0  0  0  0  0  0  0  0  0  0  0
   -1.0912    1.6777    0.0206 N   0  0  0  0  0  0  0  0  0  0  0  0
    1.2384    2.1167   -0.0028 N   0  0  0  0  0  0  0  0  0  0  0  0
   -2.9764   -1.4946    0.0018 N   0  0  0  0  0  0  0  0  0  0  0  0
    2.4639   -0.8985    1.1743 N   0  0  0  0  0  0  0  0  0  0  0  0
    0.4740   -0.1642   -0.0244 C   0  0  0  0  0  0  0  0  0  0  0  0
   -0.5808   -1.0703   -0.0230 C   0  0  0  0  0  0  0  0  0  0  0  0
    0.1683    1.1870   -0.0024 C   0  0  0  0  0  0  0  0  0  0  0  0
   -1.8906   -0.6040    0.0003 C   0  0  0  0  0  0  0  0  0  0  0  0
   -2.0904    0.7670    0.0213 C   0  0  0  0  0  0  0  0  0  0  0  0
    1.8425   -0.6623   -0.0474 C   0  0  0  0  0  0  0  0  0  0  0  0
   -0.3828   -2.1398   -0.0402 H   0  0  0  0  0  0  0  0  0  0  0  0
   -3.0894    1.1923    0.0399 H   0  0  0  0  0  0  0  0  0  0  0  0
    2.1102    1.8524    0.4390 H   0  0  0  0  0  0  0  0  0  0  0  0
    0.9847    3.0973    0.0094 H   0  0  0  0  0  0  0  0  0  0  0  0
   -2.8140   -2.4926   -0.0129 H   0  0  0  0  0  0  0  0  0  0  0  0
   -3.9234   -1.1399    0.0198 H   0  0  0  0  0  0  0  0  0  0  0  0
    1.9921   -0.7397    2.0589 H   0  0  0  0  0  0  0  0  0  0  0  0
    3.4185   -1.2396    1.2169 H   0  0  0  0  0  0  0  0  0  0  0  0
  1 11  2  0  0  0  0
  2  8  1  0  0  0  0
  2 10  2  0  0  0  0
  3  8  1  0  0  0  0
  3 14  1  0  0  0  0
  3 15  1  0  0  0  0
  4  9  1  0  0  0  0
  4 16  1  0  0  0  0
  4 17  1  0  0  0  0
  5 11  1  0  0  0  0
  5 18  1  0  0  0  0
  5 19  1  0  0  0  0
  6  7  1  0  0  0  0
  6  8  2  0  0  0  0
  6 11  1  0  0  0  0
  7  9  2  0  0  0  0
  7 12  1  0  0  0  0
  9 10  1  0  0  0  0
 10 13  1  0  0  0  0
M  END
>  <PUBCHEM_COMPOUND_CID>
61357616

>  <PUBCHEM_CONFORMER_RMSD>
0.4

>  <PUBCHEM_CONFORMER_DIVERSEORDER>
2
3
1

>  <PUBCHEM_MMFF94_PARTIAL_CHARGES>
19
1 -0.57
10 0.16
11 0.54
12 0.15
13 0.15
14 0.4
15 0.4
16 0.4
17 0.4
18 0.37
19 0.37
2 -0.62
3 -0.9
4 -0.9
5 -0.8
6 0.09
7 -0.15
8 0.41
9 0.1

>  <PUBCHEM_EFFECTIVE_ROTOR_COUNT>
1

>  <PUBCHEM_PHARMACOPHORE_FEATURES>
8
1 1 acceptor
1 2 acceptor
1 3 cation
1 3 donor
1 4 cation
1 4 donor
1 5 donor
6 2 6 7 8 9 10 rings

>  <PUBCHEM_HEAVY_ATOM_COUNT>
11

>  <PUBCHEM_ATOM_DEF_STEREO_COUNT>
0

>  <PUBCHEM_ATOM_UDEF_STEREO_COUNT>
0

>  <PUBCHEM_BOND_DEF_STEREO_COUNT>
0

>  <PUBCHEM_BOND_UDEF_STEREO_COUNT>
0

>  <PUBCHEM_ISOTOPIC_ATOM_COUNT>
0

>  <PUBCHEM_COMPONENT_COUNT>
1

>  <PUBCHEM_CACTVS_TAUTO_COUNT>
16

>  <PUBCHEM_CONFORMER_ID>
03A83E3000000002

>  <PUBCHEM_MMFF94_ENERGY>
51.7547

>  <PUBCHEM_FEATURE_SELFOVERLAP>
40.596

>  <PUBCHEM_SHAPE_FINGERPRINT>
10857977 72 18342446024307264586
12423570 1 16184414009748240598
12716758 59 17980481165699127598
14128692 85 18339372932157050836
15310529 11 16733561402737481925
161256 15 18339086019846844821
16945 1 18266740186427435493
20645477 70 18196086879735608943
20653091 64 18335421321784584616
20871998 22 18342183279609331959
21040471 1 17834395618389602988
23552423 10 18188495790662535213
241688 4 18408604760100729521
2748010 2 18338230565736076357
29004967 10 17060050407096012082
369184 2 18262789649590967626
5084963 1 17988933270574882867
528862 383 18121775290342524813

>  <PUBCHEM_SHAPE_MULTIPOLES>
200.58
3.61
1.84
0.77
0.23
0.8
-0.02
-1.54
-0.05
0.17
-0.01
-0.48
-0.17
-0.03

>  <PUBCHEM_SHAPE_SELFOVERLAP>
421.766

>  <PUBCHEM_SHAPE_VOLUME>
112.6

>  <PUBCHEM_COORDINATE_TYPE>
2
5
10

$$$$
