62074662
 OpenBabel01182520543D

 35 35  0  0  0  0  0  0  0  0999 V2000
    0.9735    1.7994   -1.4354 O   0  0  0  0  0  0  0  0  0  0  0  0
   -0.0888    1.3784    0.5834 N   0  0  0  0  0  0  0  0  0  0  0  0
    3.2588   -1.7532   -0.4579 N   0  0  0  0  0  0  0  0  0  0  0  0
    1.5209   -1.0913   -1.9284 N   0  0  0  0  0  0  0  0  0  0  0  0
   -2.9257    0.3815    0.5175 C   0  0  0  0  0  0  0  0  0  0  0  0
   -2.3807    1.5516   -0.3084 C   0  0  0  0  0  0  0  0  0  0  0  0
   -4.1357   -0.2604   -0.1660 C   0  0  0  0  0  0  0  0  0  0  0  0
   -1.2098    2.2529    0.3733 C   0  0  0  0  0  0  0  0  0  0  0  0
   -4.7398   -1.4179    0.6321 C   0  0  0  0  0  0  0  0  0  0  0  0
   -5.9846   -2.0131   -0.0079 C   0  0  0  0  0  0  0  0  0  0  0  0
    0.9266    1.2211   -0.3529 C   0  0  0  0  0  0  0  0  0  0  0  0
    2.0016    0.2596    0.0035 C   0  0  0  0  0  0  0  0  0  0  0  0
    2.2892   -0.8606   -0.7596 C   0  0  0  0  0  0  0  0  0  0  0  0
    2.7577    0.4780    1.1498 C   0  0  0  0  0  0  0  0  0  0  0  0
    3.7641   -0.4180    1.4932 C   0  0  0  0  0  0  0  0  0  0  0  0
    3.9728   -1.5080    0.6636 C   0  0  0  0  0  0  0  0  0  0  0  0
   -2.1484   -0.3787    0.6575 H   0  0  0  0  0  0  0  0  0  0  0  0
   -3.2149    0.7381    1.5134 H   0  0  0  0  0  0  0  0  0  0  0  0
   -2.0676    1.1846   -1.2937 H   0  0  0  0  0  0  0  0  0  0  0  0
   -3.1791    2.2842   -0.4762 H   0  0  0  0  0  0  0  0  0  0  0  0
   -4.9070    0.5040   -0.3232 H   0  0  0  0  0  0  0  0  0  0  0  0
   -3.8430   -0.6233   -1.1590 H   0  0  0  0  0  0  0  0  0  0  0  0
   -1.5129    2.6349    1.3540 H   0  0  0  0  0  0  0  0  0  0  0  0
   -0.8903    3.1071   -0.2337 H   0  0  0  0  0  0  0  0  0  0  0  0
   -3.9882   -2.2073    0.7512 H   0  0  0  0  0  0  0  0  0  0  0  0
   -4.9963   -1.0691    1.6396 H   0  0  0  0  0  0  0  0  0  0  0  0
   -0.0552    0.8458    1.4480 H   0  0  0  0  0  0  0  0  0  0  0  0
   -6.7725   -1.2594   -0.1038 H   0  0  0  0  0  0  0  0  0  0  0  0
   -5.7606   -2.4049   -1.0050 H   0  0  0  0  0  0  0  0  0  0  0  0
   -6.3708   -2.8348    0.6031 H   0  0  0  0  0  0  0  0  0  0  0  0
    2.5775    1.3428    1.7828 H   0  0  0  0  0  0  0  0  0  0  0  0
    4.3666   -0.2676    2.3816 H   0  0  0  0  0  0  0  0  0  0  0  0
    4.7457   -2.2360    0.8871 H   0  0  0  0  0  0  0  0  0  0  0  0
    1.7553   -1.9159   -2.4678 H   0  0  0  0  0  0  0  0  0  0  0  0
    0.5584   -0.7774   -1.9451 H   0  0  0  0  0  0  0  0  0  0  0  0
  1 11  2  0  0  0  0
  2  8  1  0  0  0  0
  2 11  1  0  0  0  0
  2 27  1  0  0  0  0
  3 13  1  0  0  0  0
  3 16  2  0  0  0  0
  4 13  1  0  0  0  0
  4 34  1  0  0  0  0
  4 35  1  0  0  0  0
  5  6  1  0  0  0  0
  5  7  1  0  0  0  0
  5 17  1  0  0  0  0
  5 18  1  0  0  0  0
  6  8  1  0  0  0  0
  6 19  1  0  0  0  0
  6 20  1  0  0  0  0
  7  9  1  0  0  0  0
  7 21  1  0  0  0  0
  7 22  1  0  0  0  0
  8 23  1  0  0  0  0
  8 24  1  0  0  0  0
  9 10  1  0  0  0  0
  9 25  1  0  0  0  0
  9 26  1  0  0  0  0
 10 28  1  0  0  0  0
 10 29  1  0  0  0  0
 10 30  1  0  0  0  0
 11 12  1  0  0  0  0
 12 13  2  0  0  0  0
 12 14  1  0  0  0  0
 14 15  2  0  0  0  0
 14 31  1  0  0  0  0
 15 16  1  0  0  0  0
 15 32  1  0  0  0  0
 16 33  1  0  0  0  0
M  END
>  <PUBCHEM_COMPOUND_CID>
62074662

>  <PUBCHEM_CONFORMER_RMSD>
0.8

>  <PUBCHEM_CONFORMER_DIVERSEORDER>
1
40
14
60
53
59
73
84
74
19
18
22
9
42
58
87
65
23
72
81
79
71
86
10
3
85
63
33
35
5
88
15
56
66
4
69
67
21
41
6
78
76
75
27
24
46
31
20
50
82
61
30
7
64
62
16
12
2
17
45
70
25
28
68
26
38
11
32
37
13
8
83
39
55
57
80
36
34
29
44
77
47
48
52
49
54
43
51

>  <PUBCHEM_MMFF94_PARTIAL_CHARGES>
17
1 -0.57
11 0.54
12 0.09
13 0.41
14 -0.15
15 -0.15
16 0.16
2 -0.73
27 0.37
3 -0.62
31 0.15
32 0.15
33 0.15
34 0.4
35 0.4
4 -0.9
8 0.3

>  <PUBCHEM_EFFECTIVE_ROTOR_COUNT>
7

>  <PUBCHEM_PHARMACOPHORE_FEATURES>
8
1 1 acceptor
1 10 hydrophobe
1 2 donor
1 3 acceptor
1 4 cation
1 4 donor
4 5 6 7 9 hydrophobe
6 3 12 13 14 15 16 rings

>  <PUBCHEM_HEAVY_ATOM_COUNT>
16

>  <PUBCHEM_ATOM_DEF_STEREO_COUNT>
0

>  <PUBCHEM_ATOM_UDEF_STEREO_COUNT>
0

>  <PUBCHEM_BOND_DEF_STEREO_COUNT>
0

>  <PUBCHEM_BOND_UDEF_STEREO_COUNT>
0

>  <PUBCHEM_ISOTOPIC_ATOM_COUNT>
0

>  <PUBCHEM_COMPONENT_COUNT>
1

>  <PUBCHEM_CACTVS_TAUTO_COUNT>
7

>  <PUBCHEM_CONFORMER_ID>
03B32F2600000001

>  <PUBCHEM_MMFF94_ENERGY>
32.3736

>  <PUBCHEM_FEATURE_SELFOVERLAP>
40.595

>  <PUBCHEM_SHAPE_FINGERPRINT>
10447042 23 18336817688957121527
10465860 228 12031789137009146580
122479 349 10159696893879884021
12363563 72 18335146401370994849
12633257 1 16200141127872335275
12892183 10 16630255740378927233
13083527 12 18260259789527074924
14123255 52 9727635003546553857
14178342 30 18197786492245307081
1420 369 18411420626849385891
14251740 57 17703241697221833383
14251751 18 18113328735382511943
14252887 29 17989211447100917835
14341114 328 15267337457410491531
15210252 30 12984947177193355608
15342816 4 17968374559435576506
15352361 1 18410292536593702747
17834072 32 9439403540921188067
1798214 55 9871752382071561483
18186145 218 12108087521636236660
19107657 162 18271241608242636321
193927 3 18260838102778363643
20261772 1 17917988408095264871
20281475 54 18411145744742660393
20374829 77 18333445448646266545
20388580 30 18114181977622039661
20403669 9 18410294735733139195
20626108 58 18187077356254213865
20645477 70 18115869762514764217
20671657 53 17749106703724611069
231179 274 9223229658731189445
23402655 69 12179848285914739506
251288 83 18412822486873462480
270888 7 9583524213691730755
3009799 131 11818990752476669216
316301 35 18267583503473030178
5352402 22 17703795807968658251
76465 3 18113892728295295298
7808743 9 10303517416807376851
8988823 20 17489299845970659065

>  <PUBCHEM_SHAPE_MULTIPOLES>
308.46
10.54
2.31
1.28
13.8
0.3
0.26
-8.88
-2.39
1.14
0.19
-1.19
-0.12
0.2

>  <PUBCHEM_SHAPE_SELFOVERLAP>
614.27

>  <PUBCHEM_SHAPE_VOLUME>
181.5

>  <PUBCHEM_COORDINATE_TYPE>
2
5
10

$$$$
