62072598
 OpenBabel01182520543D

 27 27  0  0  0  0  0  0  0  0999 V2000
    3.4667   -0.8035    0.4104 O   0  0  0  0  0  0  0  0  0  0  0  0
    0.2573    1.8756   -1.1454 O   0  0  0  0  0  0  0  0  0  0  0  0
    1.0593    0.7321    0.7056 N   0  0  0  0  0  0  0  0  0  0  0  0
   -2.5564   -1.6147    0.0043 N   0  0  0  0  0  0  0  0  0  0  0  0
   -0.2154   -1.7740   -0.3343 N   0  0  0  0  0  0  0  0  0  0  0  0
    2.3812    1.3164    0.7040 C   0  0  0  0  0  0  0  0  0  0  0  0
    3.3491    0.5035   -0.1364 C   0  0  0  0  0  0  0  0  0  0  0  0
   -1.2192    0.3977   -0.0806 C   0  0  0  0  0  0  0  0  0  0  0  0
    0.0719    1.0545   -0.2312 C   0  0  0  0  0  0  0  0  0  0  0  0
   -1.3709   -0.9788   -0.1293 C   0  0  0  0  0  0  0  0  0  0  0  0
   -2.3575    1.1713    0.1180 C   0  0  0  0  0  0  0  0  0  0  0  0
   -3.5951    0.5535    0.2599 C   0  0  0  0  0  0  0  0  0  0  0  0
   -3.6405   -0.8300    0.1958 C   0  0  0  0  0  0  0  0  0  0  0  0
    4.3693   -1.6036   -0.3409 C   0  0  0  0  0  0  0  0  0  0  0  0
    2.7108    1.3402    1.7479 H   0  0  0  0  0  0  0  0  0  0  0  0
    2.3225    2.3434    0.3298 H   0  0  0  0  0  0  0  0  0  0  0  0
    4.3311    0.9902   -0.1342 H   0  0  0  0  0  0  0  0  0  0  0  0
    2.9907    0.4355   -1.1704 H   0  0  0  0  0  0  0  0  0  0  0  0
    0.8449    0.0538    1.4312 H   0  0  0  0  0  0  0  0  0  0  0  0
   -2.2945    2.2553    0.1657 H   0  0  0  0  0  0  0  0  0  0  0  0
   -4.4956    1.1362    0.4159 H   0  0  0  0  0  0  0  0  0  0  0  0
   -4.5814   -1.3601    0.3005 H   0  0  0  0  0  0  0  0  0  0  0  0
    0.5495   -1.3902   -0.8754 H   0  0  0  0  0  0  0  0  0  0  0  0
   -0.3552   -2.7767   -0.3629 H   0  0  0  0  0  0  0  0  0  0  0  0
    4.4215   -2.5919    0.1236 H   0  0  0  0  0  0  0  0  0  0  0  0
    5.3703   -1.1618   -0.3353 H   0  0  0  0  0  0  0  0  0  0  0  0
    4.0136   -1.7200   -1.3693 H   0  0  0  0  0  0  0  0  0  0  0  0
  1  7  1  0  0  0  0
  1 14  1  0  0  0  0
  2  9  2  0  0  0  0
  3  6  1  0  0  0  0
  3  9  1  0  0  0  0
  3 19  1  0  0  0  0
  4 10  1  0  0  0  0
  4 13  2  0  0  0  0
  5 10  1  0  0  0  0
  5 23  1  0  0  0  0
  5 24  1  0  0  0  0
  6  7  1  0  0  0  0
  6 15  1  0  0  0  0
  6 16  1  0  0  0  0
  7 17  1  0  0  0  0
  7 18  1  0  0  0  0
  8  9  1  0  0  0  0
  8 10  2  0  0  0  0
  8 11  1  0  0  0  0
 11 12  2  0  0  0  0
 11 20  1  0  0  0  0
 12 13  1  0  0  0  0
 12 21  1  0  0  0  0
 13 22  1  0  0  0  0
 14 25  1  0  0  0  0
 14 26  1  0  0  0  0
 14 27  1  0  0  0  0
M  END
>  <PUBCHEM_COMPOUND_CID>
62072598

>  <PUBCHEM_CONFORMER_RMSD>
0.6

>  <PUBCHEM_CONFORMER_DIVERSEORDER>
1
25
4
50
51
20
17
54
53
11
45
41
12
55
15
10
46
6
35
32
37
23
36
24
52
3
27
16
9
47
2
14
8
40
49
18
28
30
39
7
34
5
33
42
48
38
19
44
13
26
21
31
43
29
22

>  <PUBCHEM_MMFF94_PARTIAL_CHARGES>
20
1 -0.56
10 0.41
11 -0.15
12 -0.15
13 0.16
14 0.28
19 0.37
2 -0.57
20 0.15
21 0.15
22 0.15
23 0.4
24 0.4
3 -0.73
4 -0.62
5 -0.9
6 0.3
7 0.28
8 0.09
9 0.54

>  <PUBCHEM_EFFECTIVE_ROTOR_COUNT>
5

>  <PUBCHEM_PHARMACOPHORE_FEATURES>
7
1 1 acceptor
1 2 acceptor
1 3 donor
1 4 acceptor
1 5 cation
1 5 donor
6 4 8 10 11 12 13 rings

>  <PUBCHEM_HEAVY_ATOM_COUNT>
14

>  <PUBCHEM_ATOM_DEF_STEREO_COUNT>
0

>  <PUBCHEM_ATOM_UDEF_STEREO_COUNT>
0

>  <PUBCHEM_BOND_DEF_STEREO_COUNT>
0

>  <PUBCHEM_BOND_UDEF_STEREO_COUNT>
0

>  <PUBCHEM_ISOTOPIC_ATOM_COUNT>
0

>  <PUBCHEM_COMPONENT_COUNT>
1

>  <PUBCHEM_CACTVS_TAUTO_COUNT>
7

>  <PUBCHEM_CONFORMER_ID>
03B3271600000001

>  <PUBCHEM_MMFF94_ENERGY>
41.387

>  <PUBCHEM_FEATURE_SELFOVERLAP>
35.522

>  <PUBCHEM_SHAPE_FINGERPRINT>
11132069 177 18411973642242699714
11769659 78 18342172314552173681
12032990 46 18408044026218245659
12186901 62 17604707751021654005
124424 183 17560798818812702153
13690532 89 18409447012019742751
14325111 11 18341048605168602273
14993402 34 18186516635499413589
15196674 1 18412263934829538338
15536298 74 18342454863671687130
16945 1 17822557413422955321
17804303 29 18341899579823445328
17834069 15 18413670222864598813
17834074 16 18412262813874690146
18186145 218 15864074295004298812
18522853 295 18343310249316231878
19422 9 18333736831469197648
22485316 2 18410853270122297192
23402539 116 17203603775443932241
23463225 33 18408604768574288062
23559900 14 18272365395553408656
7364860 26 18121501529307127492
84936 31 16127820621469064990

>  <PUBCHEM_SHAPE_MULTIPOLES>
261.43
7.32
1.91
0.77
4.21
0.32
0.05
2.52
-0.52
0.42
0.21
0.17
-0.2
0.23

>  <PUBCHEM_SHAPE_SELFOVERLAP>
530.551

>  <PUBCHEM_SHAPE_VOLUME>
151.7

>  <PUBCHEM_COORDINATE_TYPE>
2
5
10

$$$$
