62074367
 OpenBabel01182520543D

 27 28  0  0  0  0  0  0  0  0999 V2000
   -0.6827    0.3280    1.5708 O   0  0  0  0  0  0  0  0  0  0  0  0
   -1.0735   -1.0744   -0.2339 N   0  0  0  0  0  0  0  0  0  0  0  0
    3.0919    1.0796   -0.4258 N   0  0  0  0  0  0  0  0  0  0  0  0
    1.0227    2.1705   -0.0403 N   0  0  0  0  0  0  0  0  0  0  0  0
   -3.2669   -0.1839   -0.7466 C   0  0  0  0  0  0  0  0  0  0  0  0
   -4.6753    0.1142   -0.3236 C   0  0  0  0  0  0  0  0  0  0  0  0
   -3.5840    1.1076   -0.0515 C   0  0  0  0  0  0  0  0  0  0  0  0
   -2.4942   -1.2315   -0.0197 C   0  0  0  0  0  0  0  0  0  0  0  0
   -0.2510   -0.2949    0.5861 C   0  0  0  0  0  0  0  0  0  0  0  0
    1.1575   -0.2170    0.2237 C   0  0  0  0  0  0  0  0  0  0  0  0
    1.7880    0.9780   -0.0835 C   0  0  0  0  0  0  0  0  0  0  0  0
    1.9138   -1.3828    0.1766 C   0  0  0  0  0  0  0  0  0  0  0  0
    3.2586   -1.3189   -0.1713 C   0  0  0  0  0  0  0  0  0  0  0  0
    3.7950   -0.0746   -0.4609 C   0  0  0  0  0  0  0  0  0  0  0  0
   -3.0523   -0.1579   -1.8082 H   0  0  0  0  0  0  0  0  0  0  0  0
   -5.0898   -0.4231    0.5205 H   0  0  0  0  0  0  0  0  0  0  0  0
   -5.3942    0.3550   -1.0973 H   0  0  0  0  0  0  0  0  0  0  0  0
   -3.5673    2.0144   -0.6438 H   0  0  0  0  0  0  0  0  0  0  0  0
   -3.2780    1.2424    0.9783 H   0  0  0  0  0  0  0  0  0  0  0  0
   -2.7678   -2.2209   -0.4006 H   0  0  0  0  0  0  0  0  0  0  0  0
   -2.6966   -1.2169    1.0572 H   0  0  0  0  0  0  0  0  0  0  0  0
   -0.6656   -1.5366   -1.0417 H   0  0  0  0  0  0  0  0  0  0  0  0
    1.4720   -2.3476    0.4119 H   0  0  0  0  0  0  0  0  0  0  0  0
    3.8678   -2.2144   -0.2136 H   0  0  0  0  0  0  0  0  0  0  0  0
    4.8390    0.0293   -0.7375 H   0  0  0  0  0  0  0  0  0  0  0  0
    0.0349    2.1210   -0.2569 H   0  0  0  0  0  0  0  0  0  0  0  0
    1.5106    3.0289   -0.2664 H   0  0  0  0  0  0  0  0  0  0  0  0
  1  9  2  0  0  0  0
  2  8  1  0  0  0  0
  2  9  1  0  0  0  0
  2 22  1  0  0  0  0
  3 11  1  0  0  0  0
  3 14  2  0  0  0  0
  4 11  1  0  0  0  0
  4 26  1  0  0  0  0
  4 27  1  0  0  0  0
  5  6  1  0  0  0  0
  5  7  1  0  0  0  0
  5  8  1  0  0  0  0
  5 15  1  0  0  0  0
  6  7  1  0  0  0  0
  6 16  1  0  0  0  0
  6 17  1  0  0  0  0
  7 18  1  0  0  0  0
  7 19  1  0  0  0  0
  8 20  1  0  0  0  0
  8 21  1  0  0  0  0
  9 10  1  0  0  0  0
 10 11  2  0  0  0  0
 10 12  1  0  0  0  0
 12 13  2  0  0  0  0
 12 23  1  0  0  0  0
 13 14  1  0  0  0  0
 13 24  1  0  0  0  0
 14 25  1  0  0  0  0
M  END
>  <PUBCHEM_COMPOUND_CID>
62074367

>  <PUBCHEM_CONFORMER_RMSD>
0.6

>  <PUBCHEM_CONFORMER_DIVERSEORDER>
1
22
15
17
21
27
8
25
31
5
18
29
9
24
13
19
26
20
23
10
4
12
28
16
2
14
7
30
3
6
11

>  <PUBCHEM_MMFF94_PARTIAL_CHARGES>
25
1 -0.57
10 0.09
11 0.41
12 -0.15
13 -0.15
14 0.16
15 0.1
16 0.1
17 0.1
18 0.1
19 0.1
2 -0.73
22 0.37
23 0.15
24 0.15
25 0.15
26 0.4
27 0.4
3 -0.62
4 -0.9
5 -0.19
6 -0.2
7 -0.2
8 0.4
9 0.54

>  <PUBCHEM_EFFECTIVE_ROTOR_COUNT>
4.6

>  <PUBCHEM_PHARMACOPHORE_FEATURES>
6
1 1 acceptor
1 2 donor
1 3 acceptor
1 4 cation
1 4 donor
6 3 10 11 12 13 14 rings

>  <PUBCHEM_HEAVY_ATOM_COUNT>
14

>  <PUBCHEM_ATOM_DEF_STEREO_COUNT>
0

>  <PUBCHEM_ATOM_UDEF_STEREO_COUNT>
0

>  <PUBCHEM_BOND_DEF_STEREO_COUNT>
0

>  <PUBCHEM_BOND_UDEF_STEREO_COUNT>
0

>  <PUBCHEM_ISOTOPIC_ATOM_COUNT>
0

>  <PUBCHEM_COMPONENT_COUNT>
1

>  <PUBCHEM_CACTVS_TAUTO_COUNT>
7

>  <PUBCHEM_CONFORMER_ID>
03B32DFF00000001

>  <PUBCHEM_MMFF94_ENERGY>
43.6466

>  <PUBCHEM_FEATURE_SELFOVERLAP>
30.446

>  <PUBCHEM_SHAPE_FINGERPRINT>
11031198 65 17676491639810701522
11401426 45 18411978079302476058
11471102 20 18408319986546697054
116883 192 18055077549555441310
13549 16 18412825763696047751
13571099 22 18272934916331798518
14943859 89 16298387963333268227
14993402 34 18272940414216887758
15442244 35 18267021643981463072
18186145 218 17821442452407516375
200 152 17988924453112363282
20528008 55 10159693590896714949
20606313 2 18409165519636361654
20645476 183 18201717405244454831
20645477 70 18412266099435481734
20653085 51 18187087299277246177
21119208 17 18342738511711899967
22485316 2 9727631700880136047
231179 274 17458332027484981405
23402539 116 18200586999637005589
23402655 69 18410009905780166165
23559900 14 17632854248735518202
25 1 18113899346845530306
276578 36 15140673674661266896
4028521 119 17894901907113203509
4047638 21 16370447761100778206
522135 26 18335699420985734591
58051976 100 18341891952463077839
74978 22 18340485663952775995
77779 3 18408041823253678055
84936 182 17985265420149767136
93112 12 18411135874564688959
9882013 296 11458426830047443297

>  <PUBCHEM_SHAPE_MULTIPOLES>
267.3
7.84
1.58
0.84
4.81
0.38
-0.18
0.1
1.84
-0.64
0.05
0.15
0.02
-0.15

>  <PUBCHEM_SHAPE_SELFOVERLAP>
556.172

>  <PUBCHEM_SHAPE_VOLUME>
151.8

>  <PUBCHEM_COORDINATE_TYPE>
2
5
10

$$$$
