62072944
 OpenBabel01182520543D

 29 30  0  0  0  0  0  0  0  0999 V2000
   -0.4624    1.8306   -0.9263 O   0  0  0  0  0  0  0  0  0  0  0  0
    0.0747    0.7085    1.0305 N   0  0  0  0  0  0  0  0  0  0  0  0
   -3.4046   -1.6553   -0.1440 N   0  0  0  0  0  0  0  0  0  0  0  0
    4.4541   -0.9995   -0.7318 N   0  0  0  0  0  0  0  0  0  0  0  0
   -1.0390   -1.8117   -0.1506 N   0  0  0  0  0  0  0  0  0  0  0  0
    1.3832    1.2964    1.2073 C   0  0  0  0  0  0  0  0  0  0  0  0
    2.4559    0.4936    0.5298 C   0  0  0  0  0  0  0  0  0  0  0  0
   -2.0713    0.3597   -0.0626 C   0  0  0  0  0  0  0  0  0  0  0  0
   -0.7726    1.0185   -0.0383 C   0  0  0  0  0  0  0  0  0  0  0  0
    2.8955   -0.6998    1.0919 C   0  0  0  0  0  0  0  0  0  0  0  0
    3.0144    0.9414   -0.6623 C   0  0  0  0  0  0  0  0  0  0  0  0
   -2.2129   -1.0176   -0.1174 C   0  0  0  0  0  0  0  0  0  0  0  0
   -3.2271    1.1321   -0.0330 C   0  0  0  0  0  0  0  0  0  0  0  0
   -4.4715    0.5123   -0.0589 C   0  0  0  0  0  0  0  0  0  0  0  0
    3.8879   -1.4027    0.4277 C   0  0  0  0  0  0  0  0  0  0  0  0
    4.0015    0.1651   -1.2480 C   0  0  0  0  0  0  0  0  0  0  0  0
   -4.5058   -0.8717   -0.1140 C   0  0  0  0  0  0  0  0  0  0  0  0
    1.5799    1.3509    2.2840 H   0  0  0  0  0  0  0  0  0  0  0  0
    1.3688    2.3261    0.8316 H   0  0  0  0  0  0  0  0  0  0  0  0
   -0.2363    0.0336    1.7236 H   0  0  0  0  0  0  0  0  0  0  0  0
    2.4811   -1.0778    2.0202 H   0  0  0  0  0  0  0  0  0  0  0  0
    2.6954    1.8665   -1.1302 H   0  0  0  0  0  0  0  0  0  0  0  0
   -3.1728    2.2167    0.0115 H   0  0  0  0  0  0  0  0  0  0  0  0
   -5.3858    1.0942   -0.0363 H   0  0  0  0  0  0  0  0  0  0  0  0
    4.2653   -2.3394    0.8245 H   0  0  0  0  0  0  0  0  0  0  0  0
    4.4687    0.4700   -2.1786 H   0  0  0  0  0  0  0  0  0  0  0  0
   -5.4514   -1.4034   -0.1360 H   0  0  0  0  0  0  0  0  0  0  0  0
   -0.2066   -1.4314   -0.5837 H   0  0  0  0  0  0  0  0  0  0  0  0
   -1.1721   -2.8150   -0.1878 H   0  0  0  0  0  0  0  0  0  0  0  0
  1  9  2  0  0  0  0
  2  6  1  0  0  0  0
  2  9  1  0  0  0  0
  2 20  1  0  0  0  0
  3 12  1  0  0  0  0
  3 17  2  0  0  0  0
  4 15  2  0  0  0  0
  4 16  1  0  0  0  0
  5 12  1  0  0  0  0
  5 28  1  0  0  0  0
  5 29  1  0  0  0  0
  6  7  1  0  0  0  0
  6 18  1  0  0  0  0
  6 19  1  0  0  0  0
  7 10  2  0  0  0  0
  7 11  1  0  0  0  0
  8  9  1  0  0  0  0
  8 12  2  0  0  0  0
  8 13  1  0  0  0  0
 10 15  1  0  0  0  0
 10 21  1  0  0  0  0
 11 16  2  0  0  0  0
 11 22  1  0  0  0  0
 13 14  2  0  0  0  0
 13 23  1  0  0  0  0
 14 17  1  0  0  0  0
 14 24  1  0  0  0  0
 15 25  1  0  0  0  0
 16 26  1  0  0  0  0
 17 27  1  0  0  0  0
M  END
>  <PUBCHEM_COMPOUND_CID>
62072944

>  <PUBCHEM_CONFORMER_RMSD>
0.6

>  <PUBCHEM_CONFORMER_DIVERSEORDER>
1
28
9
31
4
23
10
8
22
18
2
20
5
27
30
3
29
21
11
25
24
6
7
13
19
16
12
26
15
14
17

>  <PUBCHEM_MMFF94_PARTIAL_CHARGES>
27
1 -0.57
10 -0.15
11 -0.15
12 0.41
13 -0.15
14 -0.15
15 0.16
16 0.16
17 0.16
2 -0.73
20 0.37
21 0.15
22 0.15
23 0.15
24 0.15
25 0.15
26 0.15
27 0.15
28 0.4
29 0.4
3 -0.62
4 -0.62
5 -0.9
6 0.44
7 -0.14
8 0.09
9 0.54

>  <PUBCHEM_EFFECTIVE_ROTOR_COUNT>
4

>  <PUBCHEM_PHARMACOPHORE_FEATURES>
8
1 1 acceptor
1 2 donor
1 3 acceptor
1 4 acceptor
1 5 cation
1 5 donor
6 3 8 12 13 14 17 rings
6 4 7 10 11 15 16 rings

>  <PUBCHEM_HEAVY_ATOM_COUNT>
17

>  <PUBCHEM_ATOM_DEF_STEREO_COUNT>
0

>  <PUBCHEM_ATOM_UDEF_STEREO_COUNT>
0

>  <PUBCHEM_BOND_DEF_STEREO_COUNT>
0

>  <PUBCHEM_BOND_UDEF_STEREO_COUNT>
0

>  <PUBCHEM_ISOTOPIC_ATOM_COUNT>
0

>  <PUBCHEM_COMPONENT_COUNT>
1

>  <PUBCHEM_CACTVS_TAUTO_COUNT>
7

>  <PUBCHEM_CONFORMER_ID>
03B3287000000001

>  <PUBCHEM_MMFF94_ENERGY>
52.8264

>  <PUBCHEM_FEATURE_SELFOVERLAP>
40.597

>  <PUBCHEM_SHAPE_FINGERPRINT>
10751810 167 18408606958917990297
11128504 68 17167868568849884118
11458722 379 18410575067668287379
11543360 7 17603589650780623712
12186901 62 17968087578442908141
12596602 18 13901899016455252734
12707595 3 17703791440013311680
13533116 47 12463581659488060669
13675066 3 16200429161074131561
14115302 16 18411985758435073312
14252887 29 16702301235478157786
14386348 63 17632297861175575030
15196674 1 18411698802768960579
15239191 94 18413103978597486386
16752209 62 18270955726814246137
17804303 29 18343301487709509593
18186145 218 15864069879556320480
18522853 295 18202002127126347570
18915474 69 18259705618359543438
19422 9 18260546723211468369
20281475 54 18410290285408159048
20374829 77 18411132528563534794
20645477 70 17846495967428960724
20871999 31 18187081750010922093
2215653 11 18131628959427748709
22485316 2 18341891913475756976
23227448 37 12830078632063965794
23402655 69 17677052343854968932
23557571 272 18335125493560583336
23559900 14 18201716284205210168
23590187 173 12179836208556276430
3004659 81 18336267847655545502
3082319 5 18040719160394563344
351380 180 8935002555576581438
465052 167 18130793399152068007
474 4 16734121222129522884
4921388 177 16588317128079129955
5374978 207 10087641507001134381
59755656 215 18341608180216388215
633830 44 16371006261130672105
9709674 26 18198054992036106779

>  <PUBCHEM_SHAPE_MULTIPOLES>
324.06
9.6
1.73
1.04
0.58
0.25
0.05
2.73
-1.54
0.32
-0.04
-1.01
-0.18
-0.16

>  <PUBCHEM_SHAPE_SELFOVERLAP>
692.708

>  <PUBCHEM_SHAPE_VOLUME>
176.9

>  <PUBCHEM_COORDINATE_TYPE>
2
5
10

$$$$
