62074491
 OpenBabel01182520543D

 32 32  0  0  0  0  0  0  0  0999 V2000
    0.2429   -2.2387    0.5899 O   0  0  0  0  0  0  0  0  0  0  0  0
    1.1227   -0.5641   -0.7530 N   0  0  0  0  0  0  0  0  0  0  0  0
   -3.6027   -0.6257    0.2147 N   0  0  0  0  0  0  0  0  0  0  0  0
   -4.9104    1.3598    0.0566 N   0  0  0  0  0  0  0  0  0  0  0  0
    3.5856    0.8835    0.2845 C   0  0  0  0  0  0  0  0  0  0  0  0
    3.3881   -0.6439    0.2132 C   0  0  0  0  0  0  0  0  0  0  0  0
    2.4397   -1.1222   -0.8835 C   0  0  0  0  0  0  0  0  0  0  0  0
    4.1612    1.3920   -1.0402 C   0  0  0  0  0  0  0  0  0  0  0  0
    4.4990    1.3014    1.4375 C   0  0  0  0  0  0  0  0  0  0  0  0
    0.1160   -1.1775   -0.0153 C   0  0  0  0  0  0  0  0  0  0  0  0
   -1.1987   -0.4861   -0.0002 C   0  0  0  0  0  0  0  0  0  0  0  0
   -1.2870    0.8903   -0.1766 C   0  0  0  0  0  0  0  0  0  0  0  0
   -2.3755   -1.1924    0.1901 C   0  0  0  0  0  0  0  0  0  0  0  0
   -2.5319    1.5096   -0.1575 C   0  0  0  0  0  0  0  0  0  0  0  0
   -3.6491    0.7141    0.0398 C   0  0  0  0  0  0  0  0  0  0  0  0
    2.6134    1.3656    0.4457 H   0  0  0  0  0  0  0  0  0  0  0  0
    4.3606   -1.1327    0.0726 H   0  0  0  0  0  0  0  0  0  0  0  0
    3.0071   -0.9881    1.1836 H   0  0  0  0  0  0  0  0  0  0  0  0
    2.8139   -0.8674   -1.8794 H   0  0  0  0  0  0  0  0  0  0  0  0
    2.3670   -2.2150   -0.8412 H   0  0  0  0  0  0  0  0  0  0  0  0
    5.0856    0.8665   -1.3030 H   0  0  0  0  0  0  0  0  0  0  0  0
    3.4500    1.2729   -1.8629 H   0  0  0  0  0  0  0  0  0  0  0  0
    4.3916    2.4613   -0.9749 H   0  0  0  0  0  0  0  0  0  0  0  0
    5.4999    0.8708    1.3262 H   0  0  0  0  0  0  0  0  0  0  0  0
    4.0897    0.9629    2.3951 H   0  0  0  0  0  0  0  0  0  0  0  0
    4.5999    2.3909    1.4823 H   0  0  0  0  0  0  0  0  0  0  0  0
    0.9350    0.2874   -1.2711 H   0  0  0  0  0  0  0  0  0  0  0  0
   -0.4089    1.5162   -0.3035 H   0  0  0  0  0  0  0  0  0  0  0  0
   -2.3781   -2.2690    0.3300 H   0  0  0  0  0  0  0  0  0  0  0  0
   -2.6084    2.5841   -0.2890 H   0  0  0  0  0  0  0  0  0  0  0  0
   -5.7234    0.7755    0.2073 H   0  0  0  0  0  0  0  0  0  0  0  0
   -4.9528    2.3266    0.3549 H   0  0  0  0  0  0  0  0  0  0  0  0
  1 10  2  0  0  0  0
  2  7  1  0  0  0  0
  2 10  1  0  0  0  0
  2 27  1  0  0  0  0
  3 13  1  0  0  0  0
  3 15  2  0  0  0  0
  4 15  1  0  0  0  0
  4 31  1  0  0  0  0
  4 32  1  0  0  0  0
  5  6  1  0  0  0  0
  5  8  1  0  0  0  0
  5  9  1  0  0  0  0
  5 16  1  0  0  0  0
  6  7  1  0  0  0  0
  6 17  1  0  0  0  0
  6 18  1  0  0  0  0
  7 19  1  0  0  0  0
  7 20  1  0  0  0  0
  8 21  1  0  0  0  0
  8 22  1  0  0  0  0
  8 23  1  0  0  0  0
  9 24  1  0  0  0  0
  9 25  1  0  0  0  0
  9 26  1  0  0  0  0
 10 11  1  0  0  0  0
 11 12  1  0  0  0  0
 11 13  2  0  0  0  0
 12 14  2  0  0  0  0
 12 28  1  0  0  0  0
 13 29  1  0  0  0  0
 14 15  1  0  0  0  0
 14 30  1  0  0  0  0
M  END
>  <PUBCHEM_COMPOUND_CID>
62074491

>  <PUBCHEM_CONFORMER_RMSD>
0.6

>  <PUBCHEM_CONFORMER_DIVERSEORDER>
2
20
37
26
42
22
13
27
31
18
38
19
47
21
32
1
25
43
17
29
14
33
10
23
35
6
46
4
30
44
24
40
9
3
41
5
45
28
12
15
7
11
39
36
16
34
8

>  <PUBCHEM_MMFF94_PARTIAL_CHARGES>
17
1 -0.57
10 0.54
11 0.09
12 -0.15
13 0.16
14 -0.15
15 0.41
2 -0.73
27 0.37
28 0.15
29 0.15
3 -0.62
30 0.15
31 0.4
32 0.4
4 -0.9
7 0.3

>  <PUBCHEM_EFFECTIVE_ROTOR_COUNT>
5

>  <PUBCHEM_PHARMACOPHORE_FEATURES>
6
1 1 acceptor
1 2 donor
1 4 donor
3 3 4 15 cation
3 5 8 9 hydrophobe
6 3 11 12 13 14 15 rings

>  <PUBCHEM_HEAVY_ATOM_COUNT>
15

>  <PUBCHEM_ATOM_DEF_STEREO_COUNT>
0

>  <PUBCHEM_ATOM_UDEF_STEREO_COUNT>
0

>  <PUBCHEM_BOND_DEF_STEREO_COUNT>
0

>  <PUBCHEM_BOND_UDEF_STEREO_COUNT>
0

>  <PUBCHEM_ISOTOPIC_ATOM_COUNT>
0

>  <PUBCHEM_COMPONENT_COUNT>
1

>  <PUBCHEM_CACTVS_TAUTO_COUNT>
7

>  <PUBCHEM_CONFORMER_ID>
03B32E7B00000002

>  <PUBCHEM_MMFF94_ENERGY>
35.0869

>  <PUBCHEM_FEATURE_SELFOVERLAP>
30.446

>  <PUBCHEM_SHAPE_FINGERPRINT>
10014705 185 18335137571161080741
10608611 8 18340206288998626476
11132069 177 18333170557258458157
11543360 7 16702296862732023757
122479 349 18410012178039392074
12596602 18 16515691077945189320
12788726 201 17173225570238020578
13214271 11 18413105095705753927
15536298 74 18341336608579745678
17834072 32 18337396057933306388
17834072 33 17632287978682641293
17846911 113 18409164419876930856
18186145 218 18341059514543640270
19422 9 10231757794636396142
20645477 56 18410580544036114647
212847 35 18410857642625818808
21524375 3 18411981334645411598
22926399 37 17346880061178750721
22959321 54 18060421313611121552
23402539 116 18411691114919880350
23557571 272 18198921359764354102
23559900 14 18410301276820599270
23590187 173 18060695087706098216
351380 180 18341326726092092978
449060 62 18412549795020410980
474 4 18333737913758771228
5104073 3 18337113376070435523
548570 60 18411979156933364768
6333272 397 18333455352218423774
633830 44 18410856529665079526
7364860 26 18122624950875473902
7808743 9 18121782996395341636
90316 7 16588302761302599149
94968 8 9079113371766204436

>  <PUBCHEM_SHAPE_MULTIPOLES>
287.88
9.55
1.89
0.94
1.07
0.23
-0.05
-5.27
-0.98
0.05
-0.11
1.14
-0.16
0.47

>  <PUBCHEM_SHAPE_SELFOVERLAP>
579.326

>  <PUBCHEM_SHAPE_VOLUME>
168.3

>  <PUBCHEM_COORDINATE_TYPE>
2
5
10

$$$$
