62075008
 OpenBabel01182520543D

 30 31  0  0  0  0  0  0  0  0999 V2000
   -0.0120   -1.8639   -1.2518 O   0  0  0  0  0  0  0  0  0  0  0  0
   -1.0002   -0.3785    0.2299 N   0  0  0  0  0  0  0  0  0  0  0  0
    2.9554    1.4641   -0.0111 N   0  0  0  0  0  0  0  0  0  0  0  0
    0.7606    1.8015   -0.8414 N   0  0  0  0  0  0  0  0  0  0  0  0
   -2.3583   -0.8218    0.0336 C   0  0  0  0  0  0  0  0  0  0  0  0
   -3.0649   -0.0092   -1.0439 C   0  0  0  0  0  0  0  0  0  0  0  0
   -3.2214   -0.5727    1.2648 C   0  0  0  0  0  0  0  0  0  0  0  0
   -3.5254    1.2579   -0.3287 C   0  0  0  0  0  0  0  0  0  0  0  0
   -3.6663    0.8841    1.1471 C   0  0  0  0  0  0  0  0  0  0  0  0
    0.0741   -0.9463   -0.4401 C   0  0  0  0  0  0  0  0  0  0  0  0
    1.4127   -0.3949   -0.1073 C   0  0  0  0  0  0  0  0  0  0  0  0
    1.7452    0.9360   -0.3019 C   0  0  0  0  0  0  0  0  0  0  0  0
    2.3845   -1.2383    0.4198 C   0  0  0  0  0  0  0  0  0  0  0  0
    3.6415   -0.7320    0.7316 C   0  0  0  0  0  0  0  0  0  0  0  0
    3.8744    0.6140    0.4994 C   0  0  0  0  0  0  0  0  0  0  0  0
   -2.3434   -1.8859   -0.2259 H   0  0  0  0  0  0  0  0  0  0  0  0
   -3.9435   -0.5584   -1.4044 H   0  0  0  0  0  0  0  0  0  0  0  0
   -2.4316    0.2169   -1.9077 H   0  0  0  0  0  0  0  0  0  0  0  0
   -2.7002   -0.7665    2.2078 H   0  0  0  0  0  0  0  0  0  0  0  0
   -4.1063   -1.2203    1.2311 H   0  0  0  0  0  0  0  0  0  0  0  0
   -4.4643    1.6351   -0.7463 H   0  0  0  0  0  0  0  0  0  0  0  0
   -2.7757    2.0501   -0.4397 H   0  0  0  0  0  0  0  0  0  0  0  0
   -3.0275    1.5320    1.7582 H   0  0  0  0  0  0  0  0  0  0  0  0
   -4.6945    1.0120    1.5009 H   0  0  0  0  0  0  0  0  0  0  0  0
   -0.8319    0.3977    0.8639 H   0  0  0  0  0  0  0  0  0  0  0  0
    2.1749   -2.2904    0.5934 H   0  0  0  0  0  0  0  0  0  0  0  0
    4.4143   -1.3706    1.1436 H   0  0  0  0  0  0  0  0  0  0  0  0
    4.8383    1.0579    0.7257 H   0  0  0  0  0  0  0  0  0  0  0  0
    0.0677    1.4170   -1.4716 H   0  0  0  0  0  0  0  0  0  0  0  0
    1.0298    2.7692   -0.9711 H   0  0  0  0  0  0  0  0  0  0  0  0
  1 10  2  0  0  0  0
  2  5  1  0  0  0  0
  2 10  1  0  0  0  0
  2 25  1  0  0  0  0
  3 12  1  0  0  0  0
  3 15  2  0  0  0  0
  4 12  1  0  0  0  0
  4 29  1  0  0  0  0
  4 30  1  0  0  0  0
  5  6  1  0  0  0  0
  5  7  1  0  0  0  0
  5 16  1  0  0  0  0
  6  8  1  0  0  0  0
  6 17  1  0  0  0  0
  6 18  1  0  0  0  0
  7  9  1  0  0  0  0
  7 19  1  0  0  0  0
  7 20  1  0  0  0  0
  8  9  1  0  0  0  0
  8 21  1  0  0  0  0
  8 22  1  0  0  0  0
  9 23  1  0  0  0  0
  9 24  1  0  0  0  0
 10 11  1  0  0  0  0
 11 12  2  0  0  0  0
 11 13  1  0  0  0  0
 13 14  2  0  0  0  0
 13 26  1  0  0  0  0
 14 15  1  0  0  0  0
 14 27  1  0  0  0  0
 15 28  1  0  0  0  0
M  END
>  <PUBCHEM_COMPOUND_CID>
62075008

>  <PUBCHEM_CONFORMER_RMSD>
0.6

>  <PUBCHEM_CONFORMER_DIVERSEORDER>
3
11
9
14
13
1
15
5
8
10
2
7
4
6
16
12

>  <PUBCHEM_MMFF94_PARTIAL_CHARGES>
17
1 -0.57
10 0.54
11 0.09
12 0.41
13 -0.15
14 -0.15
15 0.16
2 -0.73
25 0.37
26 0.15
27 0.15
28 0.15
29 0.4
3 -0.62
30 0.4
4 -0.9
5 0.3

>  <PUBCHEM_EFFECTIVE_ROTOR_COUNT>
4

>  <PUBCHEM_PHARMACOPHORE_FEATURES>
7
1 1 acceptor
1 2 donor
1 3 acceptor
1 4 cation
1 4 donor
5 5 6 7 8 9 rings
6 3 11 12 13 14 15 rings

>  <PUBCHEM_HEAVY_ATOM_COUNT>
15

>  <PUBCHEM_ATOM_DEF_STEREO_COUNT>
0

>  <PUBCHEM_ATOM_UDEF_STEREO_COUNT>
0

>  <PUBCHEM_BOND_DEF_STEREO_COUNT>
0

>  <PUBCHEM_BOND_UDEF_STEREO_COUNT>
0

>  <PUBCHEM_ISOTOPIC_ATOM_COUNT>
0

>  <PUBCHEM_COMPONENT_COUNT>
1

>  <PUBCHEM_CACTVS_TAUTO_COUNT>
7

>  <PUBCHEM_CONFORMER_ID>
03B3308000000003

>  <PUBCHEM_MMFF94_ENERGY>
42.3746

>  <PUBCHEM_FEATURE_SELFOVERLAP>
35.522

>  <PUBCHEM_SHAPE_FINGERPRINT>
10219947 1 18411979139737567430
10465860 228 17916317047215073467
10799339 124 18261109660127007065
10980938 120 18335698373356410822
11086676 242 18334569110569374792
11543360 7 12895061946755774962
12077114 3 18114457873441442789
12162725 195 18411417319539711063
12251169 10 18260834825496796459
124424 183 17821721702738698455
12696612 119 18187940498857374925
12707595 3 11963395175749376395
13296908 3 17749390360095944803
13705890 14 10879992462967481762
13922767 16 18412258415696180376
14144814 61 18408885148213070939
14178342 30 18049142661062661650
14289901 80 17240489142742480665
15239191 94 11963396240922274177
15309172 13 18413387639839333247
15653759 3 17385445414490856337
15775835 57 17703792513707493873
17844478 74 17313375721566868812
18186145 218 17131845265020316630
19049666 15 17315341540851482095
19107657 47 18261382347795672237
200 152 18340759442938962191
20233049 118 17918272056588885792
20279233 1 17385437722251999459
20281407 28 14707198916329209738
20281475 54 8214146252580256213
20361792 2 12685092622331583307
20871999 31 12823291278704381985
21065199 12 18040156223104407289
21524375 3 18201435908724218543
22169311 14 17603588512920148171
22485316 2 11314027980545481643
22646028 28 11458424648040695737
23184049 59 18411135818708891606
23402539 116 15554448483601585626
23503958 8 15068345605364153329
23557571 272 15052013494136353161
2748010 2 17979057298753074742
3472631 163 16415482623603766793
6786 2 13775601521929466869
6992083 37 18338508741824385183

>  <PUBCHEM_SHAPE_MULTIPOLES>
287.88
7.6
1.62
1.1
0.65
0.21
-0.05
1.51
-2.18
-0.4
0.29
0.72
-0.13
-0.14

>  <PUBCHEM_SHAPE_SELFOVERLAP>
604.452

>  <PUBCHEM_SHAPE_VOLUME>
162

>  <PUBCHEM_COORDINATE_TYPE>
2
5
10

$$$$
