62074199
 OpenBabel01182520543D

 27 28  0  0  0  0  0  0  0  0999 V2000
   -0.7514   -1.9684   -0.4655 O   0  0  0  0  0  0  0  0  0  0  0  0
   -1.4178   -0.0633    0.6762 N   0  0  0  0  0  0  0  0  0  0  0  0
    3.2690   -0.8600   -0.0919 N   0  0  0  0  0  0  0  0  0  0  0  0
    4.8338    0.9367   -0.0704 N   0  0  0  0  0  0  0  0  0  0  0  0
   -3.6055    0.0694   -0.3546 C   0  0  0  0  0  0  0  0  0  0  0  0
   -5.0522    0.4168   -0.1583 C   0  0  0  0  0  0  0  0  0  0  0  0
   -4.0435    1.5042   -0.3861 C   0  0  0  0  0  0  0  0  0  0  0  0
   -2.8112   -0.4245    0.8063 C   0  0  0  0  0  0  0  0  0  0  0  0
   -0.4639   -0.8681    0.0406 C   0  0  0  0  0  0  0  0  0  0  0  0
    0.9025   -0.3767    0.0131 C   0  0  0  0  0  0  0  0  0  0  0  0
    1.1756    0.9860    0.0619 C   0  0  0  0  0  0  0  0  0  0  0  0
    1.9750   -1.2506   -0.0626 C   0  0  0  0  0  0  0  0  0  0  0  0
    2.4941    1.4266    0.0338 C   0  0  0  0  0  0  0  0  0  0  0  0
    3.4954    0.4720   -0.0427 C   0  0  0  0  0  0  0  0  0  0  0  0
   -3.3244   -0.3982   -1.2904 H   0  0  0  0  0  0  0  0  0  0  0  0
   -5.4807    0.3266    0.8323 H   0  0  0  0  0  0  0  0  0  0  0  0
   -5.7389    0.1896   -0.9646 H   0  0  0  0  0  0  0  0  0  0  0  0
   -4.0517    2.0071   -1.3454 H   0  0  0  0  0  0  0  0  0  0  0  0
   -3.7951    2.1440    0.4518 H   0  0  0  0  0  0  0  0  0  0  0  0
   -2.8960   -1.5143    0.8737 H   0  0  0  0  0  0  0  0  0  0  0  0
   -3.1645   -0.0012    1.7532 H   0  0  0  0  0  0  0  0  0  0  0  0
   -1.1373    0.8081    1.1132 H   0  0  0  0  0  0  0  0  0  0  0  0
    0.3905    1.7354    0.0936 H   0  0  0  0  0  0  0  0  0  0  0  0
    1.8333   -2.3265   -0.0998 H   0  0  0  0  0  0  0  0  0  0  0  0
    2.7149    2.4886    0.0659 H   0  0  0  0  0  0  0  0  0  0  0  0
    5.0173    1.8545   -0.4569 H   0  0  0  0  0  0  0  0  0  0  0  0
    5.5620    0.2359   -0.1326 H   0  0  0  0  0  0  0  0  0  0  0  0
  1  9  2  0  0  0  0
  2  8  1  0  0  0  0
  2  9  1  0  0  0  0
  2 22  1  0  0  0  0
  3 12  1  0  0  0  0
  3 14  2  0  0  0  0
  4 14  1  0  0  0  0
  4 26  1  0  0  0  0
  4 27  1  0  0  0  0
  5  6  1  0  0  0  0
  5  7  1  0  0  0  0
  5  8  1  0  0  0  0
  5 15  1  0  0  0  0
  6  7  1  0  0  0  0
  6 16  1  0  0  0  0
  6 17  1  0  0  0  0
  7 18  1  0  0  0  0
  7 19  1  0  0  0  0
  8 20  1  0  0  0  0
  8 21  1  0  0  0  0
  9 10  1  0  0  0  0
 10 11  1  0  0  0  0
 10 12  2  0  0  0  0
 11 13  2  0  0  0  0
 11 23  1  0  0  0  0
 12 24  1  0  0  0  0
 13 14  1  0  0  0  0
 13 25  1  0  0  0  0
M  END
>  <PUBCHEM_COMPOUND_CID>
62074199

>  <PUBCHEM_CONFORMER_RMSD>
0.6

>  <PUBCHEM_CONFORMER_DIVERSEORDER>
2
28
23
17
16
13
21
19
6
15
24
12
7
18
22
14
5
26
8
11
3
20
25
4
1
27
10
9

>  <PUBCHEM_MMFF94_PARTIAL_CHARGES>
25
1 -0.57
10 0.09
11 -0.15
12 0.16
13 -0.15
14 0.41
15 0.1
16 0.1
17 0.1
18 0.1
19 0.1
2 -0.73
22 0.37
23 0.15
24 0.15
25 0.15
26 0.4
27 0.4
3 -0.62
4 -0.9
5 -0.19
6 -0.2
7 -0.2
8 0.4
9 0.54

>  <PUBCHEM_EFFECTIVE_ROTOR_COUNT>
4.6

>  <PUBCHEM_PHARMACOPHORE_FEATURES>
5
1 1 acceptor
1 2 donor
1 4 donor
3 3 4 14 cation
6 3 10 11 12 13 14 rings

>  <PUBCHEM_HEAVY_ATOM_COUNT>
14

>  <PUBCHEM_ATOM_DEF_STEREO_COUNT>
0

>  <PUBCHEM_ATOM_UDEF_STEREO_COUNT>
0

>  <PUBCHEM_BOND_DEF_STEREO_COUNT>
0

>  <PUBCHEM_BOND_UDEF_STEREO_COUNT>
0

>  <PUBCHEM_ISOTOPIC_ATOM_COUNT>
0

>  <PUBCHEM_COMPONENT_COUNT>
1

>  <PUBCHEM_CACTVS_TAUTO_COUNT>
7

>  <PUBCHEM_CONFORMER_ID>
03B32D5700000002

>  <PUBCHEM_MMFF94_ENERGY>
40.7445

>  <PUBCHEM_FEATURE_SELFOVERLAP>
25.372

>  <PUBCHEM_SHAPE_FINGERPRINT>
10608611 8 18336828696789560969
11401426 45 18273491286495406320
11471102 20 18411982447088998254
11543360 7 14907896110862853640
12251169 10 12901547948916037081
12500047 106 18338232768716786506
13081056 2 18407760318259682085
13705890 14 11815898946521054098
13922767 16 18411135835730498816
14252887 29 12396292639121918336
14415576 193 18411420566582498773
14897335 6 18343018921484174918
14993402 34 17775288269982743302
15775835 57 18413669119358651775
17834072 8 18342185457837843606
18186145 218 18201450159457023723
200 152 17846778494804547161
20281475 54 10015566334226455913
20606313 2 18412825767838164137
20645477 56 18259706709734800337
20645477 70 18271247114491359166
21119208 17 16774077371455701541
212847 35 18334857203763764208
22892500 29 18131063866111943400
231179 274 18333168358061064204
23402539 116 18060132150257874485
23402655 69 18201718435972963997
23559900 14 17704071828858934818
351380 180 18260544520236208221
3545911 37 18410295826269288219
4028521 119 18114171987855287093
4072396 5 18338785755105444330
548570 60 18260828198430973461
6430166 295 18407757044977553292
69090 78 18413385453890831647
83771 10 9655575210432531803

>  <PUBCHEM_SHAPE_MULTIPOLES>
267.3
9.45
1.54
0.7
3.98
0.11
0.05
-3.62
-0.7
-0.29
-0.16
0.28
0.03
0.27

>  <PUBCHEM_SHAPE_SELFOVERLAP>
555.231

>  <PUBCHEM_SHAPE_VOLUME>
152.3

>  <PUBCHEM_COORDINATE_TYPE>
2
5
10

$$$$
