62073111
 OpenBabel01182520543D

 29 30  0  0  0  0  0  0  0  0999 V2000
    0.1065    1.9887    0.3652 O   0  0  0  0  0  0  0  0  0  0  0  0
   -0.3993    0.3382   -1.1829 N   0  0  0  0  0  0  0  0  0  0  0  0
    4.0941    0.7191    0.5069 N   0  0  0  0  0  0  0  0  0  0  0  0
   -4.2679    0.3992    1.2919 N   0  0  0  0  0  0  0  0  0  0  0  0
    5.5834   -1.1397    0.4490 N   0  0  0  0  0  0  0  0  0  0  0  0
   -1.7352    0.7979   -1.4878 C   0  0  0  0  0  0  0  0  0  0  0  0
   -2.7627    0.1760   -0.5867 C   0  0  0  0  0  0  0  0  0  0  0  0
    1.7720    0.4008   -0.0858 C   0  0  0  0  0  0  0  0  0  0  0  0
    0.4479    0.9705   -0.2642 C   0  0  0  0  0  0  0  0  0  0  0  0
   -3.1661   -1.1430   -0.7628 C   0  0  0  0  0  0  0  0  0  0  0  0
   -3.3387    0.8981    0.4460 C   0  0  0  0  0  0  0  0  0  0  0  0
    2.0089   -0.9494   -0.3190 C   0  0  0  0  0  0  0  0  0  0  0  0
    2.8385    1.1855    0.3220 C   0  0  0  0  0  0  0  0  0  0  0  0
    3.2873   -1.4662   -0.1396 C   0  0  0  0  0  0  0  0  0  0  0  0
   -4.1198   -1.6917    0.0873 C   0  0  0  0  0  0  0  0  0  0  0  0
    4.2862   -0.5980    0.2706 C   0  0  0  0  0  0  0  0  0  0  0  0
   -4.6352   -0.8861    1.0900 C   0  0  0  0  0  0  0  0  0  0  0  0
   -1.9471    0.5383   -2.5312 H   0  0  0  0  0  0  0  0  0  0  0  0
   -1.7651    1.8912   -1.4159 H   0  0  0  0  0  0  0  0  0  0  0  0
   -0.0690   -0.4636   -1.7094 H   0  0  0  0  0  0  0  0  0  0  0  0
   -2.7441   -1.7512   -1.5581 H   0  0  0  0  0  0  0  0  0  0  0  0
    1.2205   -1.6356   -0.6132 H   0  0  0  0  0  0  0  0  0  0  0  0
   -3.0647    1.9313    0.6356 H   0  0  0  0  0  0  0  0  0  0  0  0
    2.7243    2.2474    0.5176 H   0  0  0  0  0  0  0  0  0  0  0  0
    3.4788   -2.5200   -0.3141 H   0  0  0  0  0  0  0  0  0  0  0  0
   -4.4493   -2.7176   -0.0310 H   0  0  0  0  0  0  0  0  0  0  0  0
   -5.3816   -1.2666    1.7794 H   0  0  0  0  0  0  0  0  0  0  0  0
    5.6672   -2.1175    0.6986 H   0  0  0  0  0  0  0  0  0  0  0  0
    6.3089   -0.5030    0.7547 H   0  0  0  0  0  0  0  0  0  0  0  0
  1  9  2  0  0  0  0
  2  6  1  0  0  0  0
  2  9  1  0  0  0  0
  2 20  1  0  0  0  0
  3 13  1  0  0  0  0
  3 16  2  0  0  0  0
  4 11  1  0  0  0  0
  4 17  2  0  0  0  0
  5 16  1  0  0  0  0
  5 28  1  0  0  0  0
  5 29  1  0  0  0  0
  6  7  1  0  0  0  0
  6 18  1  0  0  0  0
  6 19  1  0  0  0  0
  7 10  1  0  0  0  0
  7 11  2  0  0  0  0
  8  9  1  0  0  0  0
  8 12  1  0  0  0  0
  8 13  2  0  0  0  0
 10 15  2  0  0  0  0
 10 21  1  0  0  0  0
 11 23  1  0  0  0  0
 12 14  2  0  0  0  0
 12 22  1  0  0  0  0
 13 24  1  0  0  0  0
 14 16  1  0  0  0  0
 14 25  1  0  0  0  0
 15 17  1  0  0  0  0
 15 26  1  0  0  0  0
 17 27  1  0  0  0  0
M  END
>  <PUBCHEM_COMPOUND_CID>
62073111

>  <PUBCHEM_CONFORMER_RMSD>
0.6

>  <PUBCHEM_CONFORMER_DIVERSEORDER>
2
40
11
26
45
16
39
19
21
5
37
31
33
22
27
9
38
43
7
36
23
29
41
4
44
14
1
12
25
28
46
17
13
3
42
32
15
24
6
30
35
10
8
34
20
18

>  <PUBCHEM_MMFF94_PARTIAL_CHARGES>
27
1 -0.57
10 -0.15
11 0.16
12 -0.15
13 0.16
14 -0.15
15 -0.15
16 0.41
17 0.16
2 -0.73
20 0.37
21 0.15
22 0.15
23 0.15
24 0.15
25 0.15
26 0.15
27 0.15
28 0.4
29 0.4
3 -0.62
4 -0.62
5 -0.9
6 0.44
7 -0.14
8 0.09
9 0.54

>  <PUBCHEM_EFFECTIVE_ROTOR_COUNT>
4

>  <PUBCHEM_PHARMACOPHORE_FEATURES>
7
1 1 acceptor
1 2 donor
1 4 acceptor
1 5 donor
3 3 5 16 cation
6 3 8 12 13 14 16 rings
6 4 7 10 11 15 17 rings

>  <PUBCHEM_HEAVY_ATOM_COUNT>
17

>  <PUBCHEM_ATOM_DEF_STEREO_COUNT>
0

>  <PUBCHEM_ATOM_UDEF_STEREO_COUNT>
0

>  <PUBCHEM_BOND_DEF_STEREO_COUNT>
0

>  <PUBCHEM_BOND_UDEF_STEREO_COUNT>
0

>  <PUBCHEM_ISOTOPIC_ATOM_COUNT>
0

>  <PUBCHEM_COMPONENT_COUNT>
1

>  <PUBCHEM_CACTVS_TAUTO_COUNT>
7

>  <PUBCHEM_CONFORMER_ID>
03B3291700000002

>  <PUBCHEM_MMFF94_ENERGY>
49.8262

>  <PUBCHEM_FEATURE_SELFOVERLAP>
35.521

>  <PUBCHEM_SHAPE_FINGERPRINT>
10498660 4 10807940332144097003
11046707 91 17894910737296775895
11128504 68 15719402728422677830
11543360 7 11674881112754845173
11552529 35 17773868873623632559
12251169 10 18130510829248580709
12363563 72 17022906769884962293
12507557 5 13326564181554973939
12596602 18 17203609328034936115
12633257 1 17916599746932670875
12670546 177 12468356860062145459
12892183 10 18131354137202366025
13103583 49 18202012018610123555
13675066 3 17131834252771610052
14123255 352 12319735864619323155
14251757 5 13696456419993823129
14252887 29 18131636660314776822
15209289 33 18261115183834920355
15375462 189 18410007732452718234
15527383 91 18342740714851028089
17780758 139 18272366443023879323
17870717 6 15791727499633684075
1813 80 17894922818765564509
18785283 64 18118679057658483512
19050596 39 18202283610550587544
193927 3 17676498249886572467
19862831 5 13117995608899913093
200 152 12973602231244061974
20281475 54 18334860571007321765
20300324 65 10953458535843355015
20432913 95 18335703853460419515
20645477 56 11455885893082948925
20671657 53 15719391771939974541
20681677 274 18055913444976006835
20871999 31 11963390778325104225
21065198 48 18201724006793434257
21065199 12 18272654545414643753
21150785 3 17749402425994248038
21673915 165 18338795744545863799
231179 274 12391517481417813022
23402539 116 15430315785415332950
23557571 272 17386273286495815124
26918003 58 18411976927650048904
2838139 119 10375869662908552906
351380 180 10159700179176314166
42 15 18413392037933057141
5104073 3 18270108016803643984
5352402 22 18410580582305938719
548570 60 11312055443705410707
59027123 10 10737273654521705907
5924683 9 17774996947274284095
83771 10 18335137596213388236

>  <PUBCHEM_SHAPE_MULTIPOLES>
324.06
11.07
1.65
1.08
3
0.08
0.11
4.59
-3.46
0.03
-0.07
-1.01
-0.1
0.15

>  <PUBCHEM_SHAPE_SELFOVERLAP>
691.703

>  <PUBCHEM_SHAPE_VOLUME>
177.9

>  <PUBCHEM_COORDINATE_TYPE>
2
5
10

$$$$
