62072405
 OpenBabel01182520543D

 23 23  0  0  0  0  0  0  0  0999 V2000
    3.0692   -0.0639    1.6640 F   0  0  0  0  0  0  0  0  0  0  0  0
    4.4730   -0.1172   -0.0035 F   0  0  0  0  0  0  0  0  0  0  0  0
    2.7567    1.2260   -0.0729 F   0  0  0  0  0  0  0  0  0  0  0  0
    0.3611    0.3919   -1.7799 O   0  0  0  0  0  0  0  0  0  0  0  0
    0.9557   -0.9873   -0.0132 N   0  0  0  0  0  0  0  0  0  0  0  0
   -3.2637    0.9971    0.5210 N   0  0  0  0  0  0  0  0  0  0  0  0
   -1.2792    2.1695   -0.0338 N   0  0  0  0  0  0  0  0  0  0  0  0
    2.3591   -1.0876   -0.3437 C   0  0  0  0  0  0  0  0  0  0  0  0
   -1.3383   -0.2224   -0.2856 C   0  0  0  0  0  0  0  0  0  0  0  0
    0.0376   -0.2447   -0.7628 C   0  0  0  0  0  0  0  0  0  0  0  0
    3.1659    0.0005    0.3189 C   0  0  0  0  0  0  0  0  0  0  0  0
   -1.9893    0.9471    0.0724 C   0  0  0  0  0  0  0  0  0  0  0  0
   -2.0403   -1.4177   -0.1762 C   0  0  0  0  0  0  0  0  0  0  0  0
   -3.3533   -1.4069    0.2813 C   0  0  0  0  0  0  0  0  0  0  0  0
   -3.9142   -0.1844    0.6140 C   0  0  0  0  0  0  0  0  0  0  0  0
    2.7029   -2.0709   -0.0086 H   0  0  0  0  0  0  0  0  0  0  0  0
    2.4777   -1.0353   -1.4307 H   0  0  0  0  0  0  0  0  0  0  0  0
    0.6335   -1.4699    0.8208 H   0  0  0  0  0  0  0  0  0  0  0  0
   -1.5806   -2.3646   -0.4470 H   0  0  0  0  0  0  0  0  0  0  0  0
   -3.9202   -2.3263    0.3737 H   0  0  0  0  0  0  0  0  0  0  0  0
   -4.9352   -0.1219    0.9757 H   0  0  0  0  0  0  0  0  0  0  0  0
   -0.2758    2.1607    0.1018 H   0  0  0  0  0  0  0  0  0  0  0  0
   -1.7814    3.0081    0.2315 H   0  0  0  0  0  0  0  0  0  0  0  0
  1 11  1  0  0  0  0
  2 11  1  0  0  0  0
  3 11  1  0  0  0  0
  4 10  2  0  0  0  0
  5  8  1  0  0  0  0
  5 10  1  0  0  0  0
  5 18  1  0  0  0  0
  6 12  1  0  0  0  0
  6 15  2  0  0  0  0
  7 12  1  0  0  0  0
  7 22  1  0  0  0  0
  7 23  1  0  0  0  0
  8 11  1  0  0  0  0
  8 16  1  0  0  0  0
  8 17  1  0  0  0  0
  9 10  1  0  0  0  0
  9 12  2  0  0  0  0
  9 13  1  0  0  0  0
 13 14  2  0  0  0  0
 13 19  1  0  0  0  0
 14 15  1  0  0  0  0
 14 20  1  0  0  0  0
 15 21  1  0  0  0  0
M  END
>  <PUBCHEM_COMPOUND_CID>
62072405

>  <PUBCHEM_CONFORMER_RMSD>
0.6

>  <PUBCHEM_CONFORMER_DIVERSEORDER>
1
10
11
4
3
8
12
6
9
5
7
2

>  <PUBCHEM_MMFF94_PARTIAL_CHARGES>
21
1 -0.34
10 0.54
11 1.02
12 0.41
13 -0.15
14 -0.15
15 0.16
18 0.37
19 0.15
2 -0.34
20 0.15
21 0.15
22 0.4
23 0.4
3 -0.34
4 -0.57
5 -0.73
6 -0.62
7 -0.9
8 0.3
9 0.09

>  <PUBCHEM_EFFECTIVE_ROTOR_COUNT>
4

>  <PUBCHEM_PHARMACOPHORE_FEATURES>
6
1 4 acceptor
1 5 donor
1 6 acceptor
1 7 cation
1 7 donor
6 6 9 12 13 14 15 rings

>  <PUBCHEM_HEAVY_ATOM_COUNT>
15

>  <PUBCHEM_ATOM_DEF_STEREO_COUNT>
0

>  <PUBCHEM_ATOM_UDEF_STEREO_COUNT>
0

>  <PUBCHEM_BOND_DEF_STEREO_COUNT>
0

>  <PUBCHEM_BOND_UDEF_STEREO_COUNT>
0

>  <PUBCHEM_ISOTOPIC_ATOM_COUNT>
0

>  <PUBCHEM_COMPONENT_COUNT>
1

>  <PUBCHEM_CACTVS_TAUTO_COUNT>
7

>  <PUBCHEM_CONFORMER_ID>
03B3265500000001

>  <PUBCHEM_MMFF94_ENERGY>
39.2499

>  <PUBCHEM_FEATURE_SELFOVERLAP>
30.446

>  <PUBCHEM_SHAPE_FINGERPRINT>
10726558 24 8862677793382842419
11031198 65 14979963540476077271
11132069 177 18343861130195176123
12119455 92 16988843856522133631
12251169 10 18408323284991922502
12382932 28 18410017636974480371
13214271 11 18272931631098295327
13296909 8 18408038494506252861
13897977 58 18411987991670471724
14289901 80 18343022207007692459
14943859 89 13039188112747057151
15219456 202 17703238312333630879
15309172 13 16343704335156497767
15775835 57 16917061170550839982
17804303 29 18124046623731360823
18175812 5 17632296799928204215
20361792 2 16298389062834457207
20528008 55 18343579625428033399
20645464 45 17703517631695616607
20645476 183 12103561957672637149
20645477 70 13045946802349281226
20653085 51 11239990179125079903
20711985 327 17530688727013420118
21119208 17 10375871870304900002
21501925 9 18262243317277601031
21650355 55 18409729595129742339
23402539 116 18201712973381225279
23557571 272 18059868272210405983
23559900 14 18269559347110345462
2748010 2 17831314800373803053
7364860 26 17985554355336841302
90316 7 18261673684176173701
9882013 296 18113337526753000076

>  <PUBCHEM_SHAPE_MULTIPOLES>
266.06
7.18
1.52
1
3.43
0.38
-0.07
-0.49
2.15
-0.89
-0.02
0.42
0.04
0.02

>  <PUBCHEM_SHAPE_SELFOVERLAP>
555.575

>  <PUBCHEM_SHAPE_VOLUME>
151.7

>  <PUBCHEM_COORDINATE_TYPE>
2
5
10

$$$$
