62074318
 OpenBabel01182520543D

 33 34  0  0  0  0  0  0  0  0999 V2000
   -0.1876   -1.0455   -1.8179 O   0  0  0  0  0  0  0  0  0  0  0  0
    0.4011   -1.0811    0.4439 N   0  0  0  0  0  0  0  0  0  0  0  0
   -4.1229   -0.6530    0.1426 N   0  0  0  0  0  0  0  0  0  0  0  0
   -5.5734    1.2147    0.4332 N   0  0  0  0  0  0  0  0  0  0  0  0
    1.7467   -1.6218    0.2629 C   0  0  0  0  0  0  0  0  0  0  0  0
    2.7754   -0.5362    0.1307 C   0  0  0  0  0  0  0  0  0  0  0  0
   -0.4557   -0.8392   -0.6349 C   0  0  0  0  0  0  0  0  0  0  0  0
    0.0104   -0.8103    1.8203 C   0  0  0  0  0  0  0  0  0  0  0  0
   -1.7875   -0.2781   -0.3572 C   0  0  0  0  0  0  0  0  0  0  0  0
    3.0943   -0.0269   -1.1281 C   0  0  0  0  0  0  0  0  0  0  0  0
    3.4122   -0.0371    1.2668 C   0  0  0  0  0  0  0  0  0  0  0  0
   -1.9941    1.0968   -0.3264 C   0  0  0  0  0  0  0  0  0  0  0  0
    4.0503    0.9816   -1.2507 C   0  0  0  0  0  0  0  0  0  0  0  0
    4.3679    0.9714    1.1443 C   0  0  0  0  0  0  0  0  0  0  0  0
   -2.8750   -1.1026   -0.1183 C   0  0  0  0  0  0  0  0  0  0  0  0
    4.6871    1.4807   -0.1145 C   0  0  0  0  0  0  0  0  0  0  0  0
   -3.2638    1.5975   -0.0613 C   0  0  0  0  0  0  0  0  0  0  0  0
   -4.2853    0.6890    0.1644 C   0  0  0  0  0  0  0  0  0  0  0  0
    1.7559   -2.2402   -0.6434 H   0  0  0  0  0  0  0  0  0  0  0  0
    1.9871   -2.2971    1.0928 H   0  0  0  0  0  0  0  0  0  0  0  0
    0.6002    0.0312    2.1944 H   0  0  0  0  0  0  0  0  0  0  0  0
   -1.0443   -0.5650    1.9434 H   0  0  0  0  0  0  0  0  0  0  0  0
    0.2185   -1.6955    2.4296 H   0  0  0  0  0  0  0  0  0  0  0  0
    2.6078   -0.4069   -2.0222 H   0  0  0  0  0  0  0  0  0  0  0  0
    3.1753   -0.4270    2.2531 H   0  0  0  0  0  0  0  0  0  0  0  0
   -1.1725    1.7847   -0.5071 H   0  0  0  0  0  0  0  0  0  0  0  0
    4.2990    1.3780   -2.2308 H   0  0  0  0  0  0  0  0  0  0  0  0
    4.8643    1.3597    2.0289 H   0  0  0  0  0  0  0  0  0  0  0  0
   -2.7755   -2.1838   -0.1288 H   0  0  0  0  0  0  0  0  0  0  0  0
    5.4316    2.2657   -0.2099 H   0  0  0  0  0  0  0  0  0  0  0  0
   -3.4324    2.6692   -0.0360 H   0  0  0  0  0  0  0  0  0  0  0  0
   -5.6405    2.1274    0.8667 H   0  0  0  0  0  0  0  0  0  0  0  0
   -6.3155    0.5473    0.6036 H   0  0  0  0  0  0  0  0  0  0  0  0
  1  7  2  0  0  0  0
  2  5  1  0  0  0  0
  2  7  1  0  0  0  0
  2  8  1  0  0  0  0
  3 15  1  0  0  0  0
  3 18  2  0  0  0  0
  4 18  1  0  0  0  0
  4 32  1  0  0  0  0
  4 33  1  0  0  0  0
  5  6  1  0  0  0  0
  5 19  1  0  0  0  0
  5 20  1  0  0  0  0
  6 10  2  0  0  0  0
  6 11  1  0  0  0  0
  7  9  1  0  0  0  0
  8 21  1  0  0  0  0
  8 22  1  0  0  0  0
  8 23  1  0  0  0  0
  9 12  1  0  0  0  0
  9 15  2  0  0  0  0
 10 13  1  0  0  0  0
 10 24  1  0  0  0  0
 11 14  2  0  0  0  0
 11 25  1  0  0  0  0
 12 17  2  0  0  0  0
 12 26  1  0  0  0  0
 13 16  2  0  0  0  0
 13 27  1  0  0  0  0
 14 16  1  0  0  0  0
 14 28  1  0  0  0  0
 15 29  1  0  0  0  0
 16 30  1  0  0  0  0
 17 18  1  0  0  0  0
 17 31  1  0  0  0  0
M  END
>  <PUBCHEM_COMPOUND_CID>
62074318

>  <PUBCHEM_CONFORMER_RMSD>
0.6

>  <PUBCHEM_CONFORMER_DIVERSEORDER>
4
32
65
25
35
98
73
23
39
69
101
28
40
10
26
30
61
92
57
55
24
67
82
100
86
63
79
72
74
38
48
104
93
36
22
18
94
81
45
47
29
59
85
105
84
13
46
16
91
99
44
75
20
89
19
37
83
77
80
60
43
51
95
96
8
41
62
11
50
27
5
106
31
52
78
97
17
6
76
15
34
49
14
9
68
90
58
12
102
3
33
21
2
7
53
103
1
87
64
88
42
54
56
70
66
71

>  <PUBCHEM_MMFF94_PARTIAL_CHARGES>
28
1 -0.57
10 -0.15
11 -0.15
12 -0.15
13 -0.15
14 -0.15
15 0.16
16 -0.15
17 -0.15
18 0.41
2 -0.66
24 0.15
25 0.15
26 0.15
27 0.15
28 0.15
29 0.15
3 -0.62
30 0.15
31 0.15
32 0.4
33 0.4
4 -0.9
5 0.44
6 -0.14
7 0.54
8 0.3
9 0.09

>  <PUBCHEM_EFFECTIVE_ROTOR_COUNT>
4

>  <PUBCHEM_PHARMACOPHORE_FEATURES>
5
1 1 acceptor
1 4 donor
3 3 4 18 cation
6 3 9 12 15 17 18 rings
6 6 10 11 13 14 16 rings

>  <PUBCHEM_HEAVY_ATOM_COUNT>
18

>  <PUBCHEM_ATOM_DEF_STEREO_COUNT>
0

>  <PUBCHEM_ATOM_UDEF_STEREO_COUNT>
0

>  <PUBCHEM_BOND_DEF_STEREO_COUNT>
0

>  <PUBCHEM_BOND_UDEF_STEREO_COUNT>
0

>  <PUBCHEM_ISOTOPIC_ATOM_COUNT>
0

>  <PUBCHEM_COMPONENT_COUNT>
1

>  <PUBCHEM_CACTVS_TAUTO_COUNT>
4

>  <PUBCHEM_CONFORMER_ID>
03B32DCE00000004

>  <PUBCHEM_MMFF94_ENERGY>
61.3437

>  <PUBCHEM_FEATURE_SELFOVERLAP>
25.372

>  <PUBCHEM_SHAPE_FINGERPRINT>
10465860 250 12251900404101519263
10498660 4 18202844340027282368
11132069 177 17095238133369867786
11796584 16 8862938377544147465
12173636 292 18340480089180217175
12251169 10 16370723760062862078
12363563 72 12252185134563090022
12633257 1 16515681191304760280
12670546 177 16200141123281969093
12788726 201 17246411263105904066
12892183 10 14346338105430289036
13675066 3 13117995621537076922
1420 369 11530482220387639145
14289901 80 18260829276267330931
14341114 328 18040154023912586753
14366163 111 17275103925011517200
14787075 74 17968099767533531961
15238133 3 18260267469434859388
15239154 128 18342739598317611321
15342168 16 17822297924225408884
17349148 13 11169914961728608961
17834072 8 11455893538209092793
1798214 20 11167942454932411180
18186145 218 17967529035020554118
19050596 39 17967811647773078275
193927 3 8646486366288902212
19862831 5 16272211903233316922
20369508 70 10447922854662686782
204376 136 17022905669983184835
20626108 58 9150878456412944616
20645477 70 15410906175527935822
20671657 53 9871745806086585394
20871999 31 16629950157081027326
21652331 79 18408322168327169597
22079108 93 17894636967570489819
22646028 28 9799692601779248188
22854114 59 17167860859278099174
23227448 37 17843956181515753228
23253445 4 14345801582057219060
23503958 8 11747754488976541396
23557571 272 17846217833736417870
23559900 14 18196370308199655023
26918003 58 12107777523717948622
3004659 81 11095888172577967088
31174 14 15430036574028890254
3472631 163 18272087253276212340
34797466 226 17703514384658246877
38570 142 16879375479019878532
4028521 119 17775568667239284352
4340502 62 16877951499586770241
465052 167 8790596039684870033
474 4 17894354392807935492
4990 188 15339112438125845415
5104073 3 18334861571988143723
5374978 207 16877663443897345781
59682541 52 14117234976432943321
633830 44 18335700529103316350
7164475 11 14404362572312109226
76465 3 12108084313617134505
7808743 9 18267583705573376052
960060 61 13542463180941460064

>  <PUBCHEM_SHAPE_MULTIPOLES>
349.62
10.62
1.6
1.33
3.03
0.14
0
5.59
-1.43
0.1
-0.05
-1.01
-0.18
-0.43

>  <PUBCHEM_SHAPE_SELFOVERLAP>
743.008

>  <PUBCHEM_SHAPE_VOLUME>
194.3

>  <PUBCHEM_COORDINATE_TYPE>
2
5
10

$$$$
