62140327
 OpenBabel01182520543D

 22 22  0  0  0  0  0  0  0  0999 V2000
   -0.7634   -2.4729    1.1156 O   0  0  0  0  0  0  0  0  0  0  0  0
    1.1404    0.1305   -0.0090 N   0  0  0  0  0  0  0  0  0  0  0  0
   -0.4685    1.8718   -0.0220 N   0  0  0  0  0  0  0  0  0  0  0  0
   -0.7737   -2.5106   -1.1772 N   0  0  0  0  0  0  0  0  0  0  0  0
   -1.1984   -0.4327    0.0221 C   0  0  0  0  0  0  0  0  0  0  0  0
   -0.2157    0.5438   -0.0038 C   0  0  0  0  0  0  0  0  0  0  0  0
   -2.5261   -0.0197    0.0297 C   0  0  0  0  0  0  0  0  0  0  0  0
   -2.8262    1.3379    0.0114 C   0  0  0  0  0  0  0  0  0  0  0  0
    2.2264    1.0549   -0.0349 C   0  0  0  0  0  0  0  0  0  0  0  0
   -0.8944   -1.8569    0.0446 C   0  0  0  0  0  0  0  0  0  0  0  0
   -1.7707    2.2351   -0.0139 C   0  0  0  0  0  0  0  0  0  0  0  0
    3.5086    0.3473    0.0033 C   0  0  0  0  0  0  0  0  0  0  0  0
    4.5616   -0.2286    0.0340 C   0  0  0  0  0  0  0  0  0  0  0  0
    1.3147   -0.8110   -0.3466 H   0  0  0  0  0  0  0  0  0  0  0  0
   -3.3350   -0.7453    0.0506 H   0  0  0  0  0  0  0  0  0  0  0  0
    2.1802    1.6686   -0.9422 H   0  0  0  0  0  0  0  0  0  0  0  0
    2.1685    1.7331    0.8246 H   0  0  0  0  0  0  0  0  0  0  0  0
   -3.8538    1.6829    0.0171 H   0  0  0  0  0  0  0  0  0  0  0  0
   -1.9513    3.3049   -0.0287 H   0  0  0  0  0  0  0  0  0  0  0  0
   -0.8841   -2.0249   -2.0617 H   0  0  0  0  0  0  0  0  0  0  0  0
   -0.5688   -3.5033   -1.2199 H   0  0  0  0  0  0  0  0  0  0  0  0
    5.4955   -0.7396    0.0613 H   0  0  0  0  0  0  0  0  0  0  0  0
  1 10  2  0  0  0  0
  2  6  1  0  0  0  0
  2  9  1  0  0  0  0
  2 14  1  0  0  0  0
  3  6  1  0  0  0  0
  3 11  2  0  0  0  0
  4 10  1  0  0  0  0
  4 20  1  0  0  0  0
  4 21  1  0  0  0  0
  5  6  2  0  0  0  0
  5  7  1  0  0  0  0
  5 10  1  0  0  0  0
  7  8  2  0  0  0  0
  7 15  1  0  0  0  0
  8 11  1  0  0  0  0
  8 18  1  0  0  0  0
  9 12  1  0  0  0  0
  9 16  1  0  0  0  0
  9 17  1  0  0  0  0
 11 19  1  0  0  0  0
 12 13  3  0  0  0  0
 13 22  1  0  0  0  0
M  END
>  <PUBCHEM_COMPOUND_CID>
62140327

>  <PUBCHEM_CONFORMER_RMSD>
0.6

>  <PUBCHEM_CONFORMER_DIVERSEORDER>
1
12
14
4
6
13
11
9
3
7
5
10
8
2

>  <PUBCHEM_MMFF94_PARTIAL_CHARGES>
20
1 -0.57
10 0.54
11 0.16
12 -0.2
13 -0.18
14 0.4
15 0.15
18 0.15
19 0.15
2 -0.87
20 0.37
21 0.37
22 0.18
3 -0.62
4 -0.8
5 0.09
6 0.41
7 -0.15
8 -0.15
9 0.57

>  <PUBCHEM_EFFECTIVE_ROTOR_COUNT>
3

>  <PUBCHEM_PHARMACOPHORE_FEATURES>
7
1 1 acceptor
1 13 hydrophobe
1 2 cation
1 2 donor
1 3 acceptor
1 4 donor
6 3 5 6 7 8 11 rings

>  <PUBCHEM_HEAVY_ATOM_COUNT>
13

>  <PUBCHEM_ATOM_DEF_STEREO_COUNT>
0

>  <PUBCHEM_ATOM_UDEF_STEREO_COUNT>
0

>  <PUBCHEM_BOND_DEF_STEREO_COUNT>
0

>  <PUBCHEM_BOND_UDEF_STEREO_COUNT>
0

>  <PUBCHEM_ISOTOPIC_ATOM_COUNT>
0

>  <PUBCHEM_COMPONENT_COUNT>
1

>  <PUBCHEM_CACTVS_TAUTO_COUNT>
7

>  <PUBCHEM_CONFORMER_ID>
03B42FA700000001

>  <PUBCHEM_MMFF94_ENERGY>
44.1453

>  <PUBCHEM_FEATURE_SELFOVERLAP>
35.521

>  <PUBCHEM_SHAPE_FINGERPRINT>
12716758 59 18411693322533135464
13024252 1 13839982214107882741
13380535 76 18340487768460292990
15042514 8 18337677507055602883
15669948 3 18410292557978582532
16945 1 18334584576356308333
193761 8 17762056940707865065
20510252 161 18272090461405844464
20524608 308 18343581858589572278
20645476 183 17748828518280957090
20711985 365 18338236084600142676
20871998 184 18270126836622477063
21524375 3 18338515231678270005
23402539 116 18343292678557622941
23419403 2 13899336162293693695
23559900 14 18343862209208069424
23728640 28 18410849971603673674
257057 1 17694772326139580935
2748010 2 18266188227231988877
305870 269 18046345236449633312
3071541 12 17404023617499653981
366044 4 18411417276495235497
43471831 8 18262235495741429995
54173680 148 18264491865284150011
5706482 22 18339355271388569299
6333449 129 18413387639781291388
6338986 31 17551781947112217134
69090 78 18343015588483830956
7364860 26 17765715715661577541
81228 2 18193262225113911097
9709674 26 18342461443799266894

>  <PUBCHEM_SHAPE_MULTIPOLES>
246.72
5.59
2.57
0.75
8.2
1.25
0.02
-1.51
-0.07
-1.8
0.06
-0.11
0.39
-0.01

>  <PUBCHEM_SHAPE_SELFOVERLAP>
508.347

>  <PUBCHEM_SHAPE_VOLUME>
140.1

>  <PUBCHEM_COORDINATE_TYPE>
2
5
10

$$$$
