62155825
 OpenBabel01182520543D

 38 39  0  0  0  0  0  0  0  0999 V2000
    0.8174    2.5965    0.6868 O   0  0  0  0  0  0  0  0  0  0  0  0
   -0.5149    0.9912   -0.3693 N   0  0  0  0  0  0  0  0  0  0  0  0
   -4.1564   -0.9910    0.4114 N   0  0  0  0  0  0  0  0  0  0  0  0
    3.2557   -1.0396    1.1557 N   0  0  0  0  0  0  0  0  0  0  0  0
    5.2218   -1.7973    0.0433 N   0  0  0  0  0  0  0  0  0  0  0  0
   -3.1118   -0.2768   -0.3186 C   0  0  0  0  0  0  0  0  0  0  0  0
   -1.8156   -1.0994   -0.3221 C   0  0  0  0  0  0  0  0  0  0  0  0
   -2.8755    1.1019    0.3136 C   0  0  0  0  0  0  0  0  0  0  0  0
   -0.6837   -0.3262   -0.9968 C   0  0  0  0  0  0  0  0  0  0  0  0
   -1.7161    1.8265   -0.3692 C   0  0  0  0  0  0  0  0  0  0  0  0
    0.6755    1.4933    0.1612 C   0  0  0  0  0  0  0  0  0  0  0  0
   -4.4258   -2.2856   -0.2144 C   0  0  0  0  0  0  0  0  0  0  0  0
   -5.3790   -0.1896    0.4718 C   0  0  0  0  0  0  0  0  0  0  0  0
    1.8705    0.6422    0.1082 C   0  0  0  0  0  0  0  0  0  0  0  0
    2.7341    0.6858   -0.9807 C   0  0  0  0  0  0  0  0  0  0  0  0
    2.1733   -0.2297    1.1415 C   0  0  0  0  0  0  0  0  0  0  0  0
    3.8582   -0.1324   -1.0027 C   0  0  0  0  0  0  0  0  0  0  0  0
    4.0722   -0.9697    0.0803 C   0  0  0  0  0  0  0  0  0  0  0  0
   -3.4213   -0.1208   -1.3628 H   0  0  0  0  0  0  0  0  0  0  0  0
   -1.9271   -2.0407   -0.8699 H   0  0  0  0  0  0  0  0  0  0  0  0
   -1.5209   -1.3454    0.7068 H   0  0  0  0  0  0  0  0  0  0  0  0
   -2.6510    0.9940    1.3832 H   0  0  0  0  0  0  0  0  0  0  0  0
   -3.7497    1.7547    0.2203 H   0  0  0  0  0  0  0  0  0  0  0  0
   -0.9120   -0.1553   -2.0556 H   0  0  0  0  0  0  0  0  0  0  0  0
    0.2337   -0.9167   -0.9554 H   0  0  0  0  0  0  0  0  0  0  0  0
   -1.5264    2.7798    0.1344 H   0  0  0  0  0  0  0  0  0  0  0  0
   -1.9619    2.0499   -1.4141 H   0  0  0  0  0  0  0  0  0  0  0  0
   -5.2965   -2.7628    0.2520 H   0  0  0  0  0  0  0  0  0  0  0  0
   -3.6071   -2.9948   -0.0595 H   0  0  0  0  0  0  0  0  0  0  0  0
   -4.6319   -2.1987   -1.2875 H   0  0  0  0  0  0  0  0  0  0  0  0
   -6.2053   -0.7822    0.8837 H   0  0  0  0  0  0  0  0  0  0  0  0
   -5.6939    0.1730   -0.5136 H   0  0  0  0  0  0  0  0  0  0  0  0
   -5.2810    0.6567    1.1589 H   0  0  0  0  0  0  0  0  0  0  0  0
    2.5396    1.3529   -1.8161 H   0  0  0  0  0  0  0  0  0  0  0  0
    1.5363   -0.3087    2.0172 H   0  0  0  0  0  0  0  0  0  0  0  0
    4.5367   -0.1034   -1.8491 H   0  0  0  0  0  0  0  0  0  0  0  0
    5.3708   -2.4119    0.8339 H   0  0  0  0  0  0  0  0  0  0  0  0
    5.5823   -2.0812   -0.8594 H   0  0  0  0  0  0  0  0  0  0  0  0
  1 11  2  0  0  0  0
  2  9  1  0  0  0  0
  2 10  1  0  0  0  0
  2 11  1  0  0  0  0
  3  6  1  0  0  0  0
  3 12  1  0  0  0  0
  3 13  1  0  0  0  0
  4 16  1  0  0  0  0
  4 18  2  0  0  0  0
  5 18  1  0  0  0  0
  5 37  1  0  0  0  0
  5 38  1  0  0  0  0
  6  7  1  0  0  0  0
  6  8  1  0  0  0  0
  6 19  1  0  0  0  0
  7  9  1  0  0  0  0
  7 20  1  0  0  0  0
  7 21  1  0  0  0  0
  8 10  1  0  0  0  0
  8 22  1  0  0  0  0
  8 23  1  0  0  0  0
  9 24  1  0  0  0  0
  9 25  1  0  0  0  0
 10 26  1  0  0  0  0
 10 27  1  0  0  0  0
 11 14  1  0  0  0  0
 12 28  1  0  0  0  0
 12 29  1  0  0  0  0
 12 30  1  0  0  0  0
 13 31  1  0  0  0  0
 13 32  1  0  0  0  0
 13 33  1  0  0  0  0
 14 15  1  0  0  0  0
 14 16  2  0  0  0  0
 15 17  2  0  0  0  0
 15 34  1  0  0  0  0
 16 35  1  0  0  0  0
 17 18  1  0  0  0  0
 17 36  1  0  0  0  0
M  END
>  <PUBCHEM_COMPOUND_CID>
62155825

>  <PUBCHEM_CONFORMER_RMSD>
0.6

>  <PUBCHEM_CONFORMER_DIVERSEORDER>
2
52
51
59
29
21
43
53
50
14
34
15
11
20
44
23
33
5
12
32
6
30
49
38
55
28
13
31
10
19
42
22
46
45
27
9
25
18
37
8
35
48
7
41
54
4
36
47
24
1
3
26
57
40
58
56
39
17
16

>  <PUBCHEM_MMFF94_PARTIAL_CHARGES>
21
1 -0.57
10 0.3
11 0.54
12 0.27
13 0.27
14 0.09
15 -0.15
16 0.16
17 -0.15
18 0.41
2 -0.66
3 -0.81
34 0.15
35 0.15
36 0.15
37 0.4
38 0.4
4 -0.62
5 -0.9
6 0.27
9 0.3

>  <PUBCHEM_EFFECTIVE_ROTOR_COUNT>
4.2

>  <PUBCHEM_PHARMACOPHORE_FEATURES>
6
1 1 acceptor
1 3 cation
1 5 donor
3 4 5 18 cation
6 2 6 7 8 9 10 rings
6 4 14 15 16 17 18 rings

>  <PUBCHEM_HEAVY_ATOM_COUNT>
18

>  <PUBCHEM_ATOM_DEF_STEREO_COUNT>
0

>  <PUBCHEM_ATOM_UDEF_STEREO_COUNT>
0

>  <PUBCHEM_BOND_DEF_STEREO_COUNT>
0

>  <PUBCHEM_BOND_UDEF_STEREO_COUNT>
0

>  <PUBCHEM_ISOTOPIC_ATOM_COUNT>
0

>  <PUBCHEM_COMPONENT_COUNT>
1

>  <PUBCHEM_CACTVS_TAUTO_COUNT>
4

>  <PUBCHEM_CONFORMER_ID>
03B46C3100000002

>  <PUBCHEM_MMFF94_ENERGY>
55.429

>  <PUBCHEM_FEATURE_SELFOVERLAP>
30.446

>  <PUBCHEM_SHAPE_FINGERPRINT>
10498660 4 7925909305128822094
11046707 91 18410011013739128093
11140007 195 17203621379659998513
11543360 7 16370445578930298837
11578080 2 18042381626229498652
12032990 46 18413107251457589476
12236239 1 18113904819187474060
12553582 1 18410000048693052079
12596602 18 17275101760142876034
12633257 1 18201732755842055745
12892183 10 16128384731105612838
13103583 49 18194711296225692427
13533116 47 18124875922635846155
13675066 3 16486981695598717917
13740256 8 18412263939282533842
14123255 352 9799688194810558090
14252887 29 17917714600019896334
14576447 43 17894631414462911386
15188451 53 16916773137644794519
15196674 1 18410011048093487749
15239191 94 18335136514118921847
15375462 189 18333732394715162192
15885798 251 18342459239990394393
16752209 62 18264469746656028909
17492 89 18052536870600986967
17804303 29 18412828001653746245
1813 80 17967542245959856775
18186145 218 13118288044522568884
18915474 69 18187087277633728038
193927 3 18261684692103234018
19422 9 18333736801383366620
19784866 135 18341046324530230424
200 152 17095522876932468972
20028762 73 17845370110905237583
20281475 54 18409449210731937429
20291156 8 18408319994904529380
20645477 70 18265608960908715727
20871999 31 16950276278728328085
21267235 1 18336836311993520942
21713013 43 17676200269060503759
22646028 28 18334011691985210923
22950370 63 18408891745330375255
235170 7 15140951868594738731
23559900 14 18336819896660287577
23590187 173 8358272426966404887
2871803 45 17749385974944969523
3004659 81 18113618963238730214
3472631 163 8502654813848678387
351380 3 18260551130117173331
4028521 119 11458423526890623015
42 15 18272934924974376719
4325135 7 18334297591733064292
465052 167 18339369664225320527
5104073 3 18130232674355521403
58051976 100 18041273253888414197
7364860 26 18128253595969606080
76465 3 18340200886336144959
7970288 3 18410852174505626078
83771 10 18410012130694434060
94968 8 18260546766240106618
960060 61 17822290236202534247

>  <PUBCHEM_SHAPE_MULTIPOLES>
344.64
10.34
2.08
0.99
2.18
0.29
-0.01
-6.53
-0.67
0.46
-0.16
-0.56
-0.02
-0.36

>  <PUBCHEM_SHAPE_SELFOVERLAP>
714.058

>  <PUBCHEM_SHAPE_VOLUME>
195.8

>  <PUBCHEM_COORDINATE_TYPE>
2
5
10

$$$$
