62155287
 OpenBabel01182520543D

 29 29  0  0  0  0  0  0  0  0999 V2000
    1.0832    1.6884    0.8348 O   0  0  0  0  0  0  0  0  0  0  0  0
    1.6447   -0.0974   -0.6003 N   0  0  0  0  0  0  0  0  0  0  0  0
   -2.5305   -0.8253    1.0555 N   0  0  0  0  0  0  0  0  0  0  0  0
   -4.6929   -0.6016    0.0805 N   0  0  0  0  0  0  0  0  0  0  0  0
    3.0621    0.1369   -0.6189 C   0  0  0  0  0  0  0  0  0  0  0  0
    3.7895   -0.6158    0.4887 C   0  0  0  0  0  0  0  0  0  0  0  0
    0.7657    0.7212    0.1438 C   0  0  0  0  0  0  0  0  0  0  0  0
    1.1577   -1.2309   -1.3942 C   0  0  0  0  0  0  0  0  0  0  0  0
    5.2892   -0.3559    0.4899 C   0  0  0  0  0  0  0  0  0  0  0  0
   -0.6676    0.3894    0.1074 C   0  0  0  0  0  0  0  0  0  0  0  0
   -1.5062    0.9375   -0.8569 C   0  0  0  0  0  0  0  0  0  0  0  0
   -1.2238   -0.4789    1.0327 C   0  0  0  0  0  0  0  0  0  0  0  0
   -2.8564    0.6052   -0.8660 C   0  0  0  0  0  0  0  0  0  0  0  0
   -3.3148   -0.2728    0.1029 C   0  0  0  0  0  0  0  0  0  0  0  0
    3.2364    1.2119   -0.4888 H   0  0  0  0  0  0  0  0  0  0  0  0
    3.4597   -0.1351   -1.6035 H   0  0  0  0  0  0  0  0  0  0  0  0
    3.3772   -0.3299    1.4641 H   0  0  0  0  0  0  0  0  0  0  0  0
    3.6166   -1.6934    0.3834 H   0  0  0  0  0  0  0  0  0  0  0  0
    1.3823   -1.0308   -2.4466 H   0  0  0  0  0  0  0  0  0  0  0  0
    0.0897   -1.4221   -1.3022 H   0  0  0  0  0  0  0  0  0  0  0  0
    1.6933   -2.1318   -1.0802 H   0  0  0  0  0  0  0  0  0  0  0  0
    5.7403   -0.6687   -0.4571 H   0  0  0  0  0  0  0  0  0  0  0  0
    5.5011    0.7078    0.6375 H   0  0  0  0  0  0  0  0  0  0  0  0
    5.7708   -0.9148    1.2983 H   0  0  0  0  0  0  0  0  0  0  0  0
   -1.1172    1.6232   -1.6047 H   0  0  0  0  0  0  0  0  0  0  0  0
   -0.6193   -0.9384    1.8088 H   0  0  0  0  0  0  0  0  0  0  0  0
   -3.5165    1.0286   -1.6160 H   0  0  0  0  0  0  0  0  0  0  0  0
   -5.0247   -1.2387    0.7940 H   0  0  0  0  0  0  0  0  0  0  0  0
   -5.3438    0.0755   -0.2981 H   0  0  0  0  0  0  0  0  0  0  0  0
  1  7  2  0  0  0  0
  2  5  1  0  0  0  0
  2  7  1  0  0  0  0
  2  8  1  0  0  0  0
  3 12  1  0  0  0  0
  3 14  2  0  0  0  0
  4 14  1  0  0  0  0
  4 28  1  0  0  0  0
  4 29  1  0  0  0  0
  5  6  1  0  0  0  0
  5 15  1  0  0  0  0
  5 16  1  0  0  0  0
  6  9  1  0  0  0  0
  6 17  1  0  0  0  0
  6 18  1  0  0  0  0
  7 10  1  0  0  0  0
  8 19  1  0  0  0  0
  8 20  1  0  0  0  0
  8 21  1  0  0  0  0
  9 22  1  0  0  0  0
  9 23  1  0  0  0  0
  9 24  1  0  0  0  0
 10 11  1  0  0  0  0
 10 12  2  0  0  0  0
 11 13  2  0  0  0  0
 11 25  1  0  0  0  0
 12 26  1  0  0  0  0
 13 14  1  0  0  0  0
 13 27  1  0  0  0  0
M  END
>  <PUBCHEM_COMPOUND_CID>
62155287

>  <PUBCHEM_CONFORMER_RMSD>
0.6

>  <PUBCHEM_CONFORMER_DIVERSEORDER>
1
23
34
40
29
6
31
43
42
22
37
14
45
28
8
15
24
41
19
32
5
38
25
33
11
36
13
30
27
7
12
18
44
21
10
16
26
2
35
9
17
4
46
39
20
3

>  <PUBCHEM_MMFF94_PARTIAL_CHARGES>
17
1 -0.57
10 0.09
11 -0.15
12 0.16
13 -0.15
14 0.41
2 -0.66
25 0.15
26 0.15
27 0.15
28 0.4
29 0.4
3 -0.62
4 -0.9
5 0.3
7 0.54
8 0.3

>  <PUBCHEM_EFFECTIVE_ROTOR_COUNT>
4

>  <PUBCHEM_PHARMACOPHORE_FEATURES>
5
1 1 acceptor
1 4 donor
1 9 hydrophobe
3 3 4 14 cation
6 3 10 11 12 13 14 rings

>  <PUBCHEM_HEAVY_ATOM_COUNT>
14

>  <PUBCHEM_ATOM_DEF_STEREO_COUNT>
0

>  <PUBCHEM_ATOM_UDEF_STEREO_COUNT>
0

>  <PUBCHEM_BOND_DEF_STEREO_COUNT>
0

>  <PUBCHEM_BOND_UDEF_STEREO_COUNT>
0

>  <PUBCHEM_ISOTOPIC_ATOM_COUNT>
0

>  <PUBCHEM_COMPONENT_COUNT>
1

>  <PUBCHEM_CACTVS_TAUTO_COUNT>
4

>  <PUBCHEM_CONFORMER_ID>
03B46A1700000001

>  <PUBCHEM_MMFF94_ENERGY>
42.3295

>  <PUBCHEM_FEATURE_SELFOVERLAP>
25.371

>  <PUBCHEM_SHAPE_FINGERPRINT>
10219947 1 17917711297121473884
10465860 250 18334288752231504552
12251169 10 14189573044002101824
124424 183 18261109673148889898
12815109 37 18410009935802596130
13288520 33 17603586305222678710
13690532 89 16587743131284926898
14115302 16 16950292826994771523
14252887 29 17417823820057703670
14911166 2 12540699219290692942
15207287 21 18410578391809522042
16945 1 17917722309016746309
200 152 18343016683689954815
20201158 50 18410863148288667111
20279233 1 18411707573108016407
204376 136 17775560970890063550
20645476 183 14924222759572300099
21061003 4 17988923362169805152
21119208 17 15502375633994677215
23402539 116 17894622630711264573
23402655 69 12035714436723044455
23557571 272 18113618937057613260
23559900 14 17531250608216452964
26918003 58 17775566459615661611
3286 77 18342455993163865165
449060 50 14692853588401139064
474 4 16056300847984239034
57812782 119 18113338596226321518
76465 3 18336259154156629987
81228 2 17982472411570253848

>  <PUBCHEM_SHAPE_MULTIPOLES>
267.3
8.4
1.15
1.12
4.62
0.03
0.18
2.25
0.42
-0.53
-0.1
0.47
-0.12
0.09

>  <PUBCHEM_SHAPE_SELFOVERLAP>
540.495

>  <PUBCHEM_SHAPE_VOLUME>
156.4

>  <PUBCHEM_COORDINATE_TYPE>
2
5
10

$$$$
