62154341
 OpenBabel01182520543D

 31 31  0  0  0  0  0  0  0  0999 V2000
    0.4675   -1.7162    0.5179 O   0  0  0  0  0  0  0  0  0  0  0  0
    4.5230    0.3820   -0.1381 N   0  0  0  0  0  0  0  0  0  0  0  0
    0.8865    0.5623    0.6353 N   0  0  0  0  0  0  0  0  0  0  0  0
   -3.2632    1.1908    0.4123 N   0  0  0  0  0  0  0  0  0  0  0  0
   -5.3539    0.5544   -0.5371 N   0  0  0  0  0  0  0  0  0  0  0  0
    3.0888    0.4531   -0.4153 C   0  0  0  0  0  0  0  0  0  0  0  0
    2.2987    0.4645    0.8851 C   0  0  0  0  0  0  0  0  0  0  0  0
    4.9135   -0.9892    0.1873 C   0  0  0  0  0  0  0  0  0  0  0  0
    5.2896    0.8739   -1.2823 C   0  0  0  0  0  0  0  0  0  0  0  0
    0.0744   -0.5536    0.4697 C   0  0  0  0  0  0  0  0  0  0  0  0
   -1.3596   -0.2832    0.1920 C   0  0  0  0  0  0  0  0  0  0  0  0
   -2.1367   -1.1929   -0.5165 C   0  0  0  0  0  0  0  0  0  0  0  0
   -1.9650    0.8834    0.6307 C   0  0  0  0  0  0  0  0  0  0  0  0
   -3.4765   -0.9120   -0.7612 C   0  0  0  0  0  0  0  0  0  0  0  0
   -3.9871    0.2826   -0.2798 C   0  0  0  0  0  0  0  0  0  0  0  0
    2.7592   -0.3593   -1.0767 H   0  0  0  0  0  0  0  0  0  0  0  0
    2.8536    1.3871   -0.9444 H   0  0  0  0  0  0  0  0  0  0  0  0
    2.5761    1.3302    1.4971 H   0  0  0  0  0  0  0  0  0  0  0  0
    2.4771   -0.4368    1.4798 H   0  0  0  0  0  0  0  0  0  0  0  0
    0.5069    1.4961    0.5211 H   0  0  0  0  0  0  0  0  0  0  0  0
    4.4195   -1.3488    1.0949 H   0  0  0  0  0  0  0  0  0  0  0  0
    5.9894   -1.0387    0.3919 H   0  0  0  0  0  0  0  0  0  0  0  0
    4.6931   -1.6888   -0.6275 H   0  0  0  0  0  0  0  0  0  0  0  0
    5.0462    1.9221   -1.4896 H   0  0  0  0  0  0  0  0  0  0  0  0
    5.1000    0.2882   -2.1892 H   0  0  0  0  0  0  0  0  0  0  0  0
    6.3640    0.8414   -1.0691 H   0  0  0  0  0  0  0  0  0  0  0  0
   -1.7146   -2.1226   -0.8882 H   0  0  0  0  0  0  0  0  0  0  0  0
   -1.4403    1.6331    1.2134 H   0  0  0  0  0  0  0  0  0  0  0  0
   -4.0890   -1.6172   -1.3136 H   0  0  0  0  0  0  0  0  0  0  0  0
   -5.7780    0.1513   -1.3635 H   0  0  0  0  0  0  0  0  0  0  0  0
   -5.7211    1.4313   -0.1888 H   0  0  0  0  0  0  0  0  0  0  0  0
  1 10  2  0  0  0  0
  2  6  1  0  0  0  0
  2  8  1  0  0  0  0
  2  9  1  0  0  0  0
  3  7  1  0  0  0  0
  3 10  1  0  0  0  0
  3 20  1  0  0  0  0
  4 13  1  0  0  0  0
  4 15  2  0  0  0  0
  5 15  1  0  0  0  0
  5 30  1  0  0  0  0
  5 31  1  0  0  0  0
  6  7  1  0  0  0  0
  6 16  1  0  0  0  0
  6 17  1  0  0  0  0
  7 18  1  0  0  0  0
  7 19  1  0  0  0  0
  8 21  1  0  0  0  0
  8 22  1  0  0  0  0
  8 23  1  0  0  0  0
  9 24  1  0  0  0  0
  9 25  1  0  0  0  0
  9 26  1  0  0  0  0
 10 11  1  0  0  0  0
 11 12  1  0  0  0  0
 11 13  2  0  0  0  0
 12 14  2  0  0  0  0
 12 27  1  0  0  0  0
 13 28  1  0  0  0  0
 14 15  1  0  0  0  0
 14 29  1  0  0  0  0
M  END
>  <PUBCHEM_COMPOUND_CID>
62154341

>  <PUBCHEM_CONFORMER_RMSD>
0.6

>  <PUBCHEM_CONFORMER_DIVERSEORDER>
1
40
24
4
17
31
41
33
28
22
43
2
7
19
42
29
35
32
3
21
9
27
44
20
30
36
25
37
8
34
5
13
39
6
10
26
11
16
14
18
15
23
38
12

>  <PUBCHEM_MMFF94_PARTIAL_CHARGES>
21
1 -0.57
10 0.54
11 0.09
12 -0.15
13 0.16
14 -0.15
15 0.41
2 -0.81
20 0.37
27 0.15
28 0.15
29 0.15
3 -0.73
30 0.4
31 0.4
4 -0.62
5 -0.9
6 0.27
7 0.3
8 0.27
9 0.27

>  <PUBCHEM_EFFECTIVE_ROTOR_COUNT>
5

>  <PUBCHEM_PHARMACOPHORE_FEATURES>
6
1 1 acceptor
1 2 cation
1 3 donor
1 5 donor
3 4 5 15 cation
6 4 11 12 13 14 15 rings

>  <PUBCHEM_HEAVY_ATOM_COUNT>
15

>  <PUBCHEM_ATOM_DEF_STEREO_COUNT>
0

>  <PUBCHEM_ATOM_UDEF_STEREO_COUNT>
0

>  <PUBCHEM_BOND_DEF_STEREO_COUNT>
0

>  <PUBCHEM_BOND_UDEF_STEREO_COUNT>
0

>  <PUBCHEM_ISOTOPIC_ATOM_COUNT>
0

>  <PUBCHEM_COMPONENT_COUNT>
1

>  <PUBCHEM_CACTVS_TAUTO_COUNT>
7

>  <PUBCHEM_CONFORMER_ID>
03B4666500000001

>  <PUBCHEM_MMFF94_ENERGY>
40.1619

>  <PUBCHEM_FEATURE_SELFOVERLAP>
30.446

>  <PUBCHEM_SHAPE_FINGERPRINT>
100836 57 18113339708385539365
12236239 1 18260266343625380949
12251169 10 11097856293526902722
12815109 37 11024106546962325473
13214271 11 17458347446755151315
14123238 8 15985103024604693456
14911166 2 18201717362310209337
17834072 33 18409166644959952236
17834072 8 18131353007636542740
17870717 6 17632309985525341076
18186145 218 18339066189898488649
1986462 14 18131632296184723193
200 152 14548739503825877689
20300324 65 18202002144358957833
20325693 3 18272937141520243527
20432913 95 13614529558255969716
204376 136 16587742048911055330
20645477 70 16056882438190806412
21119208 17 18202280316379139325
22854114 59 13840263706359213188
23402539 116 18272644658125660932
23402655 69 18412261714067604756
23557571 272 16845307002920331896
23559900 14 17845647170554626128
26918003 58 13830133897132003014
300161 21 18408601492163204548
3004659 81 18411421671022434294
32948 21 18343019978262394568
449060 50 13695864826955725090
4990 188 17917712396448452846
5374978 207 9943806673553886854
58051976 100 18060134379324724358
9882013 296 8286203846808042730

>  <PUBCHEM_SHAPE_MULTIPOLES>
282.9
11.59
1.27
0.96
6.67
0.28
0.11
-1.82
3.79
-0.17
-0.04
0.49
-0.08
-0.75

>  <PUBCHEM_SHAPE_SELFOVERLAP>
570.449

>  <PUBCHEM_SHAPE_VOLUME>
165.9

>  <PUBCHEM_COORDINATE_TYPE>
2
5
10

$$$$
