62155126
 OpenBabel01182520543D

 36 37  0  0  0  0  0  0  0  0999 V2000
   -0.2811   -2.0888   -0.7033 O   0  0  0  0  0  0  0  0  0  0  0  0
    0.3710   -0.5690    0.9245 N   0  0  0  0  0  0  0  0  0  0  0  0
   -3.6225    0.7534    1.0678 N   0  0  0  0  0  0  0  0  0  0  0  0
   -5.6227    1.2701   -0.1193 N   0  0  0  0  0  0  0  0  0  0  0  0
    2.6629   -0.3282    0.1258 C   0  0  0  0  0  0  0  0  0  0  0  0
    2.6575    1.1837    0.3892 C   0  0  0  0  0  0  0  0  0  0  0  0
    4.0826   -0.8985    0.2450 C   0  0  0  0  0  0  0  0  0  0  0  0
    3.6416    1.9176   -0.5190 C   0  0  0  0  0  0  0  0  0  0  0  0
    5.0644   -0.1611   -0.6628 C   0  0  0  0  0  0  0  0  0  0  0  0
    5.0498    1.3423   -0.4042 C   0  0  0  0  0  0  0  0  0  0  0  0
    1.7114   -1.0455    1.0815 C   0  0  0  0  0  0  0  0  0  0  0  0
   -0.5343   -1.1368    0.0304 C   0  0  0  0  0  0  0  0  0  0  0  0
   -1.8795   -0.5096   -0.0328 C   0  0  0  0  0  0  0  0  0  0  0  0
   -2.6486   -0.5774   -1.1892 C   0  0  0  0  0  0  0  0  0  0  0  0
   -2.4071    0.1613    1.0586 C   0  0  0  0  0  0  0  0  0  0  0  0
   -3.9042    0.0196   -1.2184 C   0  0  0  0  0  0  0  0  0  0  0  0
   -4.3413    0.6669   -0.0739 C   0  0  0  0  0  0  0  0  0  0  0  0
    2.3154   -0.4928   -0.9039 H   0  0  0  0  0  0  0  0  0  0  0  0
    2.9177    1.3821    1.4369 H   0  0  0  0  0  0  0  0  0  0  0  0
    1.6590    1.6044    0.2238 H   0  0  0  0  0  0  0  0  0  0  0  0
    4.0808   -1.9636   -0.0153 H   0  0  0  0  0  0  0  0  0  0  0  0
    4.4280   -0.8257    1.2842 H   0  0  0  0  0  0  0  0  0  0  0  0
    3.3013    1.8456   -1.5594 H   0  0  0  0  0  0  0  0  0  0  0  0
    3.6570    2.9826   -0.2612 H   0  0  0  0  0  0  0  0  0  0  0  0
    6.0760   -0.5522   -0.5058 H   0  0  0  0  0  0  0  0  0  0  0  0
    4.8066   -0.3538   -1.7115 H   0  0  0  0  0  0  0  0  0  0  0  0
    5.7132    1.8456   -1.1165 H   0  0  0  0  0  0  0  0  0  0  0  0
    5.4456    1.5437    0.5988 H   0  0  0  0  0  0  0  0  0  0  0  0
    1.9998   -0.8758    2.1248 H   0  0  0  0  0  0  0  0  0  0  0  0
    1.7321   -2.1260    0.8998 H   0  0  0  0  0  0  0  0  0  0  0  0
    0.1095    0.2480    1.4661 H   0  0  0  0  0  0  0  0  0  0  0  0
   -2.2843   -1.0872   -2.0769 H   0  0  0  0  0  0  0  0  0  0  0  0
   -1.8868    0.2379    2.0074 H   0  0  0  0  0  0  0  0  0  0  0  0
   -4.5099   -0.0291   -2.1174 H   0  0  0  0  0  0  0  0  0  0  0  0
   -5.9355    1.7473    0.7172 H   0  0  0  0  0  0  0  0  0  0  0  0
   -5.9729    1.5908   -1.0136 H   0  0  0  0  0  0  0  0  0  0  0  0
  1 12  2  0  0  0  0
  2 11  1  0  0  0  0
  2 12  1  0  0  0  0
  2 31  1  0  0  0  0
  3 15  1  0  0  0  0
  3 17  2  0  0  0  0
  4 17  1  0  0  0  0
  4 35  1  0  0  0  0
  4 36  1  0  0  0  0
  5  6  1  0  0  0  0
  5  7  1  0  0  0  0
  5 11  1  0  0  0  0
  5 18  1  0  0  0  0
  6  8  1  0  0  0  0
  6 19  1  0  0  0  0
  6 20  1  0  0  0  0
  7  9  1  0  0  0  0
  7 21  1  0  0  0  0
  7 22  1  0  0  0  0
  8 10  1  0  0  0  0
  8 23  1  0  0  0  0
  8 24  1  0  0  0  0
  9 10  1  0  0  0  0
  9 25  1  0  0  0  0
  9 26  1  0  0  0  0
 10 27  1  0  0  0  0
 10 28  1  0  0  0  0
 11 29  1  0  0  0  0
 11 30  1  0  0  0  0
 12 13  1  0  0  0  0
 13 14  1  0  0  0  0
 13 15  2  0  0  0  0
 14 16  2  0  0  0  0
 14 32  1  0  0  0  0
 15 33  1  0  0  0  0
 16 17  1  0  0  0  0
 16 34  1  0  0  0  0
M  END
>  <PUBCHEM_COMPOUND_CID>
62155126

>  <PUBCHEM_CONFORMER_RMSD>
0.6

>  <PUBCHEM_CONFORMER_DIVERSEORDER>
1
90
71
66
38
60
76
74
89
9
80
29
92
28
47
79
84
2
25
93
73
18
62
83
27
32
63
20
61
35
58
49
56
55
42
65
41
7
45
52
77
17
31
12
75
86
30
14
70
37
53
22
10
36
33
8
69
24
40
67
15
68
3
51
57
54
5
50
26
87
19
4
13
43
39
6
16
21
88
85
94
11
64
34
44
72
46
59
78
23
82
81
91
48

>  <PUBCHEM_MMFF94_PARTIAL_CHARGES>
17
1 -0.57
11 0.3
12 0.54
13 0.09
14 -0.15
15 0.16
16 -0.15
17 0.41
2 -0.73
3 -0.62
31 0.37
32 0.15
33 0.15
34 0.15
35 0.4
36 0.4
4 -0.9

>  <PUBCHEM_EFFECTIVE_ROTOR_COUNT>
5.2

>  <PUBCHEM_PHARMACOPHORE_FEATURES>
6
1 1 acceptor
1 2 donor
1 4 donor
3 3 4 17 cation
6 3 13 14 15 16 17 rings
6 5 6 7 8 9 10 rings

>  <PUBCHEM_HEAVY_ATOM_COUNT>
17

>  <PUBCHEM_ATOM_DEF_STEREO_COUNT>
0

>  <PUBCHEM_ATOM_UDEF_STEREO_COUNT>
0

>  <PUBCHEM_BOND_DEF_STEREO_COUNT>
0

>  <PUBCHEM_BOND_UDEF_STEREO_COUNT>
0

>  <PUBCHEM_ISOTOPIC_ATOM_COUNT>
0

>  <PUBCHEM_COMPONENT_COUNT>
1

>  <PUBCHEM_CACTVS_TAUTO_COUNT>
7

>  <PUBCHEM_CONFORMER_ID>
03B4697600000001

>  <PUBCHEM_MMFF94_ENERGY>
35.4498

>  <PUBCHEM_FEATURE_SELFOVERLAP>
30.446

>  <PUBCHEM_SHAPE_FINGERPRINT>
10447042 23 9511459992091588024
12236239 1 18272087184587825121
12251169 10 14129061425852068603
12363563 72 13326581790936529914
12596602 18 12540698119594709316
13533116 47 9439394739968618158
13544653 18 10663824087289813506
1420 369 9799697008310283264
14252887 29 8718558220303879840
14341114 176 14996002121149157036
14341114 328 13190343469870771324
15183329 4 18200884993917643558
15342168 16 18334577953727585429
17834072 14 12967134904239919146
17834072 33 18411134766357676951
17834072 8 18411708673336809198
17870717 6 15769783471966971989
1798214 20 12823302281846260788
1813 80 17694498144329445474
18186145 218 18259984898966720514
18222031 100 12175627283057412162
193927 3 11311782816545946052
19784866 240 10807934886114743297
200 152 10303816470900392690
20325693 3 17203891877359566743
20374829 77 14549016576650994501
20432913 95 10447930581034363908
20645477 56 17385722504052958074
20671657 53 12967132730781018602
21033648 29 17385992975381602589
212847 35 18408601457566121992
21652331 79 18114178622772676716
22079108 93 17676210199409884083
22646028 1 9439405735232543362
22646028 28 9655580711937582248
22854114 59 16515402966958747298
231179 274 18040149622035071986
23402539 116 17846497024101704696
23402655 69 18339081592431661060
23559900 14 16558739157385370474
25 1 18187365450308225874
26918003 58 10952051156189950918
3004659 81 17560806473061712782
32948 21 17275386482309352274
351380 3 9223235148032040944
4028521 119 18261387875492597756
4325135 7 18334015030171929435
449060 50 16515685515772422419
474 4 18412546474905501347
5104073 3 17968371355579897880
59682541 35 9439106634422252638
633830 44 18333728026723138678
9882013 296 12179840606818967832
9971528 1 18273210873156261634

>  <PUBCHEM_SHAPE_MULTIPOLES>
329.04
12.02
1.61
1.11
0.3
0.14
0.01
5.49
1.92
-0.99
0.13
0.62
-0.1
-0.62

>  <PUBCHEM_SHAPE_SELFOVERLAP>
679.576

>  <PUBCHEM_SHAPE_VOLUME>
185.6

>  <PUBCHEM_COORDINATE_TYPE>
2
5
10

$$$$
