62159706
 OpenBabel01182520543D

 38 39  0  0  0  0  0  0  0  0999 V2000
   -0.9095   -0.1574    1.6418 O   0  0  0  0  0  0  0  0  0  0  0  0
    3.1642    0.2924   -0.4332 N   0  0  0  0  0  0  0  0  0  0  0  0
   -0.4843    1.0203   -0.3111 N   0  0  0  0  0  0  0  0  0  0  0  0
   -4.6306   -1.1939   -0.3274 N   0  0  0  0  0  0  0  0  0  0  0  0
   -2.5601   -2.2038    0.2323 N   0  0  0  0  0  0  0  0  0  0  0  0
    3.9726   -0.5251   -1.3485 C   0  0  0  0  0  0  0  0  0  0  0  0
    3.4941    0.0032    0.9695 C   0  0  0  0  0  0  0  0  0  0  0  0
    5.4668   -0.2744   -1.1390 C   0  0  0  0  0  0  0  0  0  0  0  0
    4.9726    0.2709    1.2549 C   0  0  0  0  0  0  0  0  0  0  0  0
    5.8718   -0.5185    0.3103 C   0  0  0  0  0  0  0  0  0  0  0  0
    1.7384    0.0767   -0.6782 C   0  0  0  0  0  0  0  0  0  0  0  0
    0.9222    1.2181   -0.0894 C   0  0  0  0  0  0  0  0  0  0  0  0
   -1.2970    0.3382    0.5868 C   0  0  0  0  0  0  0  0  0  0  0  0
   -2.7241    0.1963    0.1994 C   0  0  0  0  0  0  0  0  0  0  0  0
   -3.3358   -1.0350    0.0274 C   0  0  0  0  0  0  0  0  0  0  0  0
   -3.4906    1.3381   -0.0058 C   0  0  0  0  0  0  0  0  0  0  0  0
   -4.8265    1.2154   -0.3716 C   0  0  0  0  0  0  0  0  0  0  0  0
   -5.3441   -0.0615   -0.5181 C   0  0  0  0  0  0  0  0  0  0  0  0
    3.7313   -0.2716   -2.3881 H   0  0  0  0  0  0  0  0  0  0  0  0
    3.7545   -1.5928   -1.2135 H   0  0  0  0  0  0  0  0  0  0  0  0
    3.2584   -1.0401    1.2188 H   0  0  0  0  0  0  0  0  0  0  0  0
    2.9213    0.6355    1.6544 H   0  0  0  0  0  0  0  0  0  0  0  0
    6.0481   -0.9271   -1.8000 H   0  0  0  0  0  0  0  0  0  0  0  0
    5.7085    0.7594   -1.4168 H   0  0  0  0  0  0  0  0  0  0  0  0
    5.1798    1.3432    1.1464 H   0  0  0  0  0  0  0  0  0  0  0  0
    5.2039    0.0042    2.2925 H   0  0  0  0  0  0  0  0  0  0  0  0
    5.7918   -1.5886    0.5375 H   0  0  0  0  0  0  0  0  0  0  0  0
    6.9188   -0.2339    0.4616 H   0  0  0  0  0  0  0  0  0  0  0  0
    1.5397    0.0570   -1.7585 H   0  0  0  0  0  0  0  0  0  0  0  0
    1.4032   -0.8941   -0.2893 H   0  0  0  0  0  0  0  0  0  0  0  0
    1.0742    1.3307    0.9875 H   0  0  0  0  0  0  0  0  0  0  0  0
    1.1913    2.1679   -0.5653 H   0  0  0  0  0  0  0  0  0  0  0  0
   -0.8862    1.3807   -1.1718 H   0  0  0  0  0  0  0  0  0  0  0  0
   -3.0628    2.3293    0.1192 H   0  0  0  0  0  0  0  0  0  0  0  0
   -5.4433    2.0915   -0.5360 H   0  0  0  0  0  0  0  0  0  0  0  0
   -6.3806   -0.2113   -0.8019 H   0  0  0  0  0  0  0  0  0  0  0  0
   -3.0341   -3.0894    0.1024 H   0  0  0  0  0  0  0  0  0  0  0  0
   -1.5682   -2.1683    0.0321 H   0  0  0  0  0  0  0  0  0  0  0  0
  1 13  2  0  0  0  0
  2  6  1  0  0  0  0
  2  7  1  0  0  0  0
  2 11  1  0  0  0  0
  3 12  1  0  0  0  0
  3 13  1  0  0  0  0
  3 33  1  0  0  0  0
  4 15  1  0  0  0  0
  4 18  2  0  0  0  0
  5 15  1  0  0  0  0
  5 37  1  0  0  0  0
  5 38  1  0  0  0  0
  6  8  1  0  0  0  0
  6 19  1  0  0  0  0
  6 20  1  0  0  0  0
  7  9  1  0  0  0  0
  7 21  1  0  0  0  0
  7 22  1  0  0  0  0
  8 10  1  0  0  0  0
  8 23  1  0  0  0  0
  8 24  1  0  0  0  0
  9 10  1  0  0  0  0
  9 25  1  0  0  0  0
  9 26  1  0  0  0  0
 10 27  1  0  0  0  0
 10 28  1  0  0  0  0
 11 12  1  0  0  0  0
 11 29  1  0  0  0  0
 11 30  1  0  0  0  0
 12 31  1  0  0  0  0
 12 32  1  0  0  0  0
 13 14  1  0  0  0  0
 14 15  2  0  0  0  0
 14 16  1  0  0  0  0
 16 17  2  0  0  0  0
 16 34  1  0  0  0  0
 17 18  1  0  0  0  0
 17 35  1  0  0  0  0
 18 36  1  0  0  0  0
M  END
>  <PUBCHEM_COMPOUND_CID>
62159706

>  <PUBCHEM_CONFORMER_RMSD>
0.8

>  <PUBCHEM_CONFORMER_DIVERSEORDER>
1
33
28
48
49
64
35
52
62
41
13
53
50
10
37
40
6
22
44
3
8
11
63
38
34
15
17
65
51
12
32
60
25
24
31
29
2
7
9
46
36
23
20
30
39
27
26
42
56
5
21
14
58
19
47
4
43
18
16
59
45
55
57
61
54

>  <PUBCHEM_MMFF94_PARTIAL_CHARGES>
21
1 -0.57
11 0.27
12 0.3
13 0.54
14 0.09
15 0.41
16 -0.15
17 -0.15
18 0.16
2 -0.81
3 -0.73
33 0.37
34 0.15
35 0.15
36 0.15
37 0.4
38 0.4
4 -0.62
5 -0.9
6 0.27
7 0.27

>  <PUBCHEM_EFFECTIVE_ROTOR_COUNT>
6.2

>  <PUBCHEM_PHARMACOPHORE_FEATURES>
8
1 1 acceptor
1 2 cation
1 3 donor
1 4 acceptor
1 5 cation
1 5 donor
6 2 6 7 8 9 10 rings
6 4 14 15 16 17 18 rings

>  <PUBCHEM_HEAVY_ATOM_COUNT>
18

>  <PUBCHEM_ATOM_DEF_STEREO_COUNT>
0

>  <PUBCHEM_ATOM_UDEF_STEREO_COUNT>
0

>  <PUBCHEM_BOND_DEF_STEREO_COUNT>
0

>  <PUBCHEM_BOND_UDEF_STEREO_COUNT>
0

>  <PUBCHEM_ISOTOPIC_ATOM_COUNT>
0

>  <PUBCHEM_COMPONENT_COUNT>
1

>  <PUBCHEM_CACTVS_TAUTO_COUNT>
7

>  <PUBCHEM_CONFORMER_ID>
03B47B5A00000001

>  <PUBCHEM_MMFF94_ENERGY>
36.6037

>  <PUBCHEM_FEATURE_SELFOVERLAP>
40.596

>  <PUBCHEM_SHAPE_FINGERPRINT>
10 15 17632280299776904290
10354089 29 13542465367480506230
10366900 7 17131839763578777626
10803635 8 18186515497433274703
11045977 3 17988638631950366346
11315181 36 17917715703367737536
12236239 1 17530683203986053336
12815109 37 18334293167294178928
13288520 33 18412826893673425317
13533116 47 17703512074003044414
13760787 5 16443066092899237260
13897977 58 10159701304774068451
1420 363 17346600772435332500
14251731 8 18408882932273794293
14251752 14 17023173890780341420
14341114 176 16200154300842759728
14386348 63 18060140937945435478
14848160 23 17846778507473073846
15183329 4 17385438804261855495
15375358 24 18131634482291506543
15788980 27 18259988175646920128
15880784 105 16343699958521604151
17834072 33 18260551143070530028
17834072 8 18260261950105984941
17844677 252 16773802484985424488
17870717 6 18341623607079714319
18222031 100 18412833478032629868
19489759 90 18272650125882935001
200 152 16558750092103073581
20374829 77 18334857220743134460
20645477 70 16702025223652459876
21033648 29 16773219704830283712
21267235 1 18334018324327228611
23402539 116 17603864485790805117
23557571 272 18201723899240416940
23559900 14 18342733065456511744
239999 70 18131634487488423878
26918003 58 17632858628826557008
29717793 49 17531250522596623462
300161 21 17095525119401308660
3004659 81 18186524306743436708
4214541 1 18410575080684999597
5283173 99 18058731299503964857
542803 24 17312824870583851220
54446538 1 11095881575376520162
559249 180 18261387828237511899
58051976 100 18114180869435892871
67856867 119 18190743222721957620
960060 61 17603591833288590172

>  <PUBCHEM_SHAPE_MULTIPOLES>
344.64
14.61
1.33
1.14
6.8
0.34
-0.12
1.66
1.55
-1.6
0
1.26
0.04
0.58

>  <PUBCHEM_SHAPE_SELFOVERLAP>
707.973

>  <PUBCHEM_SHAPE_VOLUME>
197

>  <PUBCHEM_COORDINATE_TYPE>
2
5
10

$$$$
