62159833
 OpenBabel01182520543D

 32 32  0  0  0  0  0  0  0  0999 V2000
   -4.4631    0.4228    0.2306 F   0  0  0  0  0  0  0  0  0  0  0  0
   -2.7490    1.7154   -0.1507 F   0  0  0  0  0  0  0  0  0  0  0  0
   -3.1058   -0.0323   -1.4140 F   0  0  0  0  0  0  0  0  0  0  0  0
   -0.2936    1.4330    1.6727 O   0  0  0  0  0  0  0  0  0  0  0  0
   -0.9209   -0.4252    0.3982 N   0  0  0  0  0  0  0  0  0  0  0  0
    3.1336    1.1059   -1.1072 N   0  0  0  0  0  0  0  0  0  0  0  0
    0.9282    1.9194   -1.4157 N   0  0  0  0  0  0  0  0  0  0  0  0
   -0.5187   -1.4601   -0.5135 C   0  0  0  0  0  0  0  0  0  0  0  0
   -2.3382   -0.4139    0.7878 C   0  0  0  0  0  0  0  0  0  0  0  0
   -0.0637   -2.7237    0.2068 C   0  0  0  0  0  0  0  0  0  0  0  0
   -0.0073    0.5263    0.8917 C   0  0  0  0  0  0  0  0  0  0  0  0
   -3.1656    0.4312   -0.1476 C   0  0  0  0  0  0  0  0  0  0  0  0
    1.3941    0.4688    0.4463 C   0  0  0  0  0  0  0  0  0  0  0  0
    0.3850   -3.8178   -0.7514 C   0  0  0  0  0  0  0  0  0  0  0  0
    1.8536    1.1431   -0.6736 C   0  0  0  0  0  0  0  0  0  0  0  0
    2.3069   -0.2927    1.1676 C   0  0  0  0  0  0  0  0  0  0  0  0
    3.6326   -0.3557    0.7528 C   0  0  0  0  0  0  0  0  0  0  0  0
    3.9920    0.3555   -0.3808 C   0  0  0  0  0  0  0  0  0  0  0  0
    0.2813   -1.1085   -1.1712 H   0  0  0  0  0  0  0  0  0  0  0  0
   -1.3590   -1.6971   -1.1768 H   0  0  0  0  0  0  0  0  0  0  0  0
   -2.7126   -1.4422    0.8241 H   0  0  0  0  0  0  0  0  0  0  0  0
   -2.4123    0.0002    1.7993 H   0  0  0  0  0  0  0  0  0  0  0  0
    0.7523   -2.5111    0.9017 H   0  0  0  0  0  0  0  0  0  0  0  0
   -0.8865   -3.1121    0.8195 H   0  0  0  0  0  0  0  0  0  0  0  0
   -0.4257   -4.0992   -1.4309 H   0  0  0  0  0  0  0  0  0  0  0  0
    1.2378   -3.4847   -1.3514 H   0  0  0  0  0  0  0  0  0  0  0  0
    0.6880   -4.7099   -0.1945 H   0  0  0  0  0  0  0  0  0  0  0  0
    2.0016   -0.8316    2.0605 H   0  0  0  0  0  0  0  0  0  0  0  0
    4.3620   -0.9409    1.3009 H   0  0  0  0  0  0  0  0  0  0  0  0
    5.0138    0.3398   -0.7454 H   0  0  0  0  0  0  0  0  0  0  0  0
   -0.0406    1.6258   -1.4402 H   0  0  0  0  0  0  0  0  0  0  0  0
    1.2928    2.4032   -2.2273 H   0  0  0  0  0  0  0  0  0  0  0  0
  1 12  1  0  0  0  0
  2 12  1  0  0  0  0
  3 12  1  0  0  0  0
  4 11  2  0  0  0  0
  5  8  1  0  0  0  0
  5  9  1  0  0  0  0
  5 11  1  0  0  0  0
  6 15  1  0  0  0  0
  6 18  2  0  0  0  0
  7 15  1  0  0  0  0
  7 31  1  0  0  0  0
  7 32  1  0  0  0  0
  8 10  1  0  0  0  0
  8 19  1  0  0  0  0
  8 20  1  0  0  0  0
  9 12  1  0  0  0  0
  9 21  1  0  0  0  0
  9 22  1  0  0  0  0
 10 14  1  0  0  0  0
 10 23  1  0  0  0  0
 10 24  1  0  0  0  0
 11 13  1  0  0  0  0
 13 15  2  0  0  0  0
 13 16  1  0  0  0  0
 14 25  1  0  0  0  0
 14 26  1  0  0  0  0
 14 27  1  0  0  0  0
 16 17  2  0  0  0  0
 16 28  1  0  0  0  0
 17 18  1  0  0  0  0
 17 29  1  0  0  0  0
 18 30  1  0  0  0  0
M  END
>  <PUBCHEM_COMPOUND_CID>
62159833

>  <PUBCHEM_CONFORMER_RMSD>
0.8

>  <PUBCHEM_CONFORMER_DIVERSEORDER>
2
8
35
7
32
38
34
39
6
4
23
9
36
22
33
26
21
40
41
42
24
25
19
16
20
1
27
37
5
3
12
18
11
14
30
31
17
10
13
15
28
29

>  <PUBCHEM_MMFF94_PARTIAL_CHARGES>
21
1 -0.34
11 0.54
12 1.02
13 0.09
15 0.41
16 -0.15
17 -0.15
18 0.16
2 -0.34
28 0.15
29 0.15
3 -0.34
30 0.15
31 0.4
32 0.4
4 -0.57
5 -0.66
6 -0.62
7 -0.9
8 0.3
9 0.3

>  <PUBCHEM_EFFECTIVE_ROTOR_COUNT>
6

>  <PUBCHEM_PHARMACOPHORE_FEATURES>
6
1 14 hydrophobe
1 4 acceptor
1 6 acceptor
1 7 cation
1 7 donor
6 6 13 15 16 17 18 rings

>  <PUBCHEM_HEAVY_ATOM_COUNT>
18

>  <PUBCHEM_ATOM_DEF_STEREO_COUNT>
0

>  <PUBCHEM_ATOM_UDEF_STEREO_COUNT>
0

>  <PUBCHEM_BOND_DEF_STEREO_COUNT>
0

>  <PUBCHEM_BOND_UDEF_STEREO_COUNT>
0

>  <PUBCHEM_ISOTOPIC_ATOM_COUNT>
0

>  <PUBCHEM_COMPONENT_COUNT>
1

>  <PUBCHEM_CACTVS_TAUTO_COUNT>
4

>  <PUBCHEM_CONFORMER_ID>
03B47BD900000002

>  <PUBCHEM_MMFF94_ENERGY>
47.2044

>  <PUBCHEM_FEATURE_SELFOVERLAP>
30.446

>  <PUBCHEM_SHAPE_FINGERPRINT>
11132069 177 11169903970590806667
12500047 106 18269832172386509424
12592029 89 18261398814558231075
13380536 243 18408317804724377060
14115302 16 18341335586746813632
14993402 34 18335424569128078244
15207287 21 17203333312330442846
15852999 172 17988373640910847558
16945 1 18272375295352285952
18186145 218 18202275926922874905
19784866 9 18270122310217330417
20233049 118 18413385445269352784
20600515 1 17846489353327265696
20645476 183 18263368138873521094
20871999 31 18128538365111808254
23402539 116 17917706890385113264
23419403 2 16613867286953390171
23598291 2 17968650648703035578
26918003 58 13039190303159233676
2748010 2 17628352989432651562
298252 57 18333733545893056706
3060560 45 18407760326548884582
34934 24 18040714818530981576
58051976 100 18115313417572476903
633830 44 17775002397081198297
74978 22 18267583700840273008
7832392 63 18115871987176104260
81228 2 17619900004157873931
81539 233 18335416812364686423
90525 40 18334862761335485162

>  <PUBCHEM_SHAPE_MULTIPOLES>
327.8
6.1
2.7
1.26
1.4
3.56
0
-2.35
-0.49
0.16
-0.8
-0.26
-0.33
-0.44

>  <PUBCHEM_SHAPE_SELFOVERLAP>
673.427

>  <PUBCHEM_SHAPE_VOLUME>
190.1

>  <PUBCHEM_COORDINATE_TYPE>
2
5
10

$$$$
