62153986
 OpenBabel01182520543D

 29 29  0  0  0  0  0  0  0  0999 V2000
   -1.0999    1.7073    0.4485 O   0  0  0  0  0  0  0  0  0  0  0  0
   -1.6030   -0.4836   -0.1177 N   0  0  0  0  0  0  0  0  0  0  0  0
    2.9642    1.0160   -0.2843 N   0  0  0  0  0  0  0  0  0  0  0  0
    4.7654   -0.5373   -0.1428 N   0  0  0  0  0  0  0  0  0  0  0  0
   -3.0462   -0.3283   -0.1097 C   0  0  0  0  0  0  0  0  0  0  0  0
   -3.4400    0.7997   -1.0703 C   0  0  0  0  0  0  0  0  0  0  0  0
   -3.5050    0.0164    1.3110 C   0  0  0  0  0  0  0  0  0  0  0  0
   -3.6994   -1.6394   -0.5622 C   0  0  0  0  0  0  0  0  0  0  0  0
   -0.7480    0.5649    0.1666 C   0  0  0  0  0  0  0  0  0  0  0  0
    0.7019    0.2501    0.0903 C   0  0  0  0  0  0  0  0  0  0  0  0
    1.1675   -1.0420    0.3077 C   0  0  0  0  0  0  0  0  0  0  0  0
    1.6327    1.2346   -0.1999 C   0  0  0  0  0  0  0  0  0  0  0  0
    2.5304   -1.3062    0.2296 C   0  0  0  0  0  0  0  0  0  0  0  0
    3.3795   -0.2521   -0.0668 C   0  0  0  0  0  0  0  0  0  0  0  0
   -3.1436    1.7932   -0.7228 H   0  0  0  0  0  0  0  0  0  0  0  0
   -2.9962    0.6486   -2.0615 H   0  0  0  0  0  0  0  0  0  0  0  0
   -4.5286    0.8328   -1.1994 H   0  0  0  0  0  0  0  0  0  0  0  0
   -3.1269    0.9824    1.6596 H   0  0  0  0  0  0  0  0  0  0  0  0
   -3.1688   -0.7422    2.0278 H   0  0  0  0  0  0  0  0  0  0  0  0
   -4.5988    0.0631    1.3664 H   0  0  0  0  0  0  0  0  0  0  0  0
   -3.3793   -1.9113   -1.5748 H   0  0  0  0  0  0  0  0  0  0  0  0
   -3.4217   -2.4681    0.0997 H   0  0  0  0  0  0  0  0  0  0  0  0
   -4.7923   -1.5628   -0.5639 H   0  0  0  0  0  0  0  0  0  0  0  0
   -1.2334   -1.3844   -0.4028 H   0  0  0  0  0  0  0  0  0  0  0  0
    0.5057   -1.8622    0.5689 H   0  0  0  0  0  0  0  0  0  0  0  0
    1.3365    2.2627   -0.3843 H   0  0  0  0  0  0  0  0  0  0  0  0
    2.9020   -2.3108    0.4039 H   0  0  0  0  0  0  0  0  0  0  0  0
    5.1302   -1.3054    0.4070 H   0  0  0  0  0  0  0  0  0  0  0  0
    5.3827    0.2371   -0.3535 H   0  0  0  0  0  0  0  0  0  0  0  0
  1  9  2  0  0  0  0
  2  5  1  0  0  0  0
  2  9  1  0  0  0  0
  2 24  1  0  0  0  0
  3 12  1  0  0  0  0
  3 14  2  0  0  0  0
  4 14  1  0  0  0  0
  4 28  1  0  0  0  0
  4 29  1  0  0  0  0
  5  6  1  0  0  0  0
  5  7  1  0  0  0  0
  5  8  1  0  0  0  0
  6 15  1  0  0  0  0
  6 16  1  0  0  0  0
  6 17  1  0  0  0  0
  7 18  1  0  0  0  0
  7 19  1  0  0  0  0
  7 20  1  0  0  0  0
  8 21  1  0  0  0  0
  8 22  1  0  0  0  0
  8 23  1  0  0  0  0
  9 10  1  0  0  0  0
 10 11  1  0  0  0  0
 10 12  2  0  0  0  0
 11 13  2  0  0  0  0
 11 25  1  0  0  0  0
 12 26  1  0  0  0  0
 13 14  1  0  0  0  0
 13 27  1  0  0  0  0
M  END
>  <PUBCHEM_COMPOUND_CID>
62153986

>  <PUBCHEM_CONFORMER_RMSD>
0.6

>  <PUBCHEM_CONFORMER_DIVERSEORDER>
2
3
4
1

>  <PUBCHEM_MMFF94_PARTIAL_CHARGES>
17
1 -0.57
10 0.09
11 -0.15
12 0.16
13 -0.15
14 0.41
2 -0.73
24 0.37
25 0.15
26 0.15
27 0.15
28 0.4
29 0.4
3 -0.62
4 -0.9
5 0.3
9 0.54

>  <PUBCHEM_EFFECTIVE_ROTOR_COUNT>
3

>  <PUBCHEM_PHARMACOPHORE_FEATURES>
6
1 1 acceptor
1 2 donor
1 4 donor
3 3 4 14 cation
4 5 6 7 8 hydrophobe
6 3 10 11 12 13 14 rings

>  <PUBCHEM_HEAVY_ATOM_COUNT>
14

>  <PUBCHEM_ATOM_DEF_STEREO_COUNT>
0

>  <PUBCHEM_ATOM_UDEF_STEREO_COUNT>
0

>  <PUBCHEM_BOND_DEF_STEREO_COUNT>
0

>  <PUBCHEM_BOND_UDEF_STEREO_COUNT>
0

>  <PUBCHEM_ISOTOPIC_ATOM_COUNT>
0

>  <PUBCHEM_COMPONENT_COUNT>
1

>  <PUBCHEM_CACTVS_TAUTO_COUNT>
7

>  <PUBCHEM_CONFORMER_ID>
03B4650200000002

>  <PUBCHEM_MMFF94_ENERGY>
46.07

>  <PUBCHEM_FEATURE_SELFOVERLAP>
30.446

>  <PUBCHEM_SHAPE_FINGERPRINT>
11046707 91 18201997754913060855
11132069 177 18341886403080098138
11401426 45 18335976515380412512
11471102 20 18408038533102845092
11543360 7 15430330164760254146
11806522 49 18410572903368325262
12032990 46 18411140259420200010
12932764 1 18407759244296091017
13296908 3 18334010592758309253
14144814 61 18273215291907436907
14325111 11 18335700563351927357
14576447 43 18410848901940480502
15375462 189 18412831300014530683
15757776 16 18186796963930904746
18186145 218 18409168817902193512
190213 19 17988923379122567535
19422 9 18201725093156299079
200 152 18412820283217544837
20201158 50 18260830392805827427
20279233 1 17603586335356073771
20281407 28 18343015584246899003
20281475 54 18273215278896161747
20645477 70 18263073332170884055
20871999 31 18261944211676379423
21267235 1 18411427227771209383
221490 88 18190747629120539026
22485316 2 18412539907684007023
22646028 28 18273213118733379255
23402539 116 18409441480017593022
23402655 69 18334293128418063884
23559900 14 18341322323988037034
2871803 45 18188761877204408623
3248919 1 17561367275035113317
3312278 4 18410290294330383435
5104073 3 18411698807069021672
57096353 35 18337394945182829532
581208 293 18336542806792042384
8809292 202 18114751532802775875
93112 12 18334006194791004197

>  <PUBCHEM_SHAPE_MULTIPOLES>
267.3
8.03
1.47
0.87
1.56
0.01
-0.09
1.78
0.73
-0.21
0.08
-0.84
-0.04
-0.22

>  <PUBCHEM_SHAPE_SELFOVERLAP>
548.303

>  <PUBCHEM_SHAPE_VOLUME>
154

>  <PUBCHEM_COORDINATE_TYPE>
2
5
10

$$$$
