62161013
 OpenBabel01182520543D

 29 29  0  0  0  0  0  0  0  0999 V2000
    3.2686    0.0024    1.5970 F   0  0  0  0  0  0  0  0  0  0  0  0
    4.6869    0.3174   -0.0289 F   0  0  0  0  0  0  0  0  0  0  0  0
    2.9560    1.6286    0.1702 F   0  0  0  0  0  0  0  0  0  0  0  0
    0.5604    1.1674   -1.7071 O   0  0  0  0  0  0  0  0  0  0  0  0
    1.1643   -0.5634   -0.2568 N   0  0  0  0  0  0  0  0  0  0  0  0
   -2.8931    1.0575    1.0282 N   0  0  0  0  0  0  0  0  0  0  0  0
   -5.1051    0.2091    0.7751 N   0  0  0  0  0  0  0  0  0  0  0  0
    2.5871   -0.5782   -0.5897 C   0  0  0  0  0  0  0  0  0  0  0  0
    0.7405   -1.5342    0.7425 C   0  0  0  0  0  0  0  0  0  0  0  0
    0.2677    0.3256   -0.8587 C   0  0  0  0  0  0  0  0  0  0  0  0
    3.3758    0.3518    0.2974 C   0  0  0  0  0  0  0  0  0  0  0  0
   -1.1448    0.2783   -0.4485 C   0  0  0  0  0  0  0  0  0  0  0  0
    0.3307   -2.8449    0.1034 C   0  0  0  0  0  0  0  0  0  0  0  0
   -2.0541   -0.5458   -1.1022 C   0  0  0  0  0  0  0  0  0  0  0  0
   -1.6103    1.0535    0.6013 C   0  0  0  0  0  0  0  0  0  0  0  0
   -3.3825   -0.5691   -0.6919 C   0  0  0  0  0  0  0  0  0  0  0  0
   -3.7481    0.2440    0.3688 C   0  0  0  0  0  0  0  0  0  0  0  0
    2.9686   -1.6024   -0.5224 H   0  0  0  0  0  0  0  0  0  0  0  0
    2.7006   -0.2538   -1.6301 H   0  0  0  0  0  0  0  0  0  0  0  0
    1.5619   -1.7080    1.4463 H   0  0  0  0  0  0  0  0  0  0  0  0
   -0.0893   -1.1448    1.3378 H   0  0  0  0  0  0  0  0  0  0  0  0
   -0.4869   -2.7287   -0.6100 H   0  0  0  0  0  0  0  0  0  0  0  0
    1.1697   -3.2974   -0.4357 H   0  0  0  0  0  0  0  0  0  0  0  0
    0.0074   -3.5538    0.8724 H   0  0  0  0  0  0  0  0  0  0  0  0
   -1.7417   -1.1645   -1.9390 H   0  0  0  0  0  0  0  0  0  0  0  0
   -0.9476    1.7159    1.1498 H   0  0  0  0  0  0  0  0  0  0  0  0
   -4.0980   -1.2085   -1.1987 H   0  0  0  0  0  0  0  0  0  0  0  0
   -5.8090   -0.0222    0.0849 H   0  0  0  0  0  0  0  0  0  0  0  0
   -5.3690    0.8094    1.5465 H   0  0  0  0  0  0  0  0  0  0  0  0
  1 11  1  0  0  0  0
  2 11  1  0  0  0  0
  3 11  1  0  0  0  0
  4 10  2  0  0  0  0
  5  8  1  0  0  0  0
  5  9  1  0  0  0  0
  5 10  1  0  0  0  0
  6 15  1  0  0  0  0
  6 17  2  0  0  0  0
  7 17  1  0  0  0  0
  7 28  1  0  0  0  0
  7 29  1  0  0  0  0
  8 11  1  0  0  0  0
  8 18  1  0  0  0  0
  8 19  1  0  0  0  0
  9 13  1  0  0  0  0
  9 20  1  0  0  0  0
  9 21  1  0  0  0  0
 10 12  1  0  0  0  0
 12 14  1  0  0  0  0
 12 15  2  0  0  0  0
 13 22  1  0  0  0  0
 13 23  1  0  0  0  0
 13 24  1  0  0  0  0
 14 16  2  0  0  0  0
 14 25  1  0  0  0  0
 15 26  1  0  0  0  0
 16 17  1  0  0  0  0
 16 27  1  0  0  0  0
M  END
>  <PUBCHEM_COMPOUND_CID>
62161013

>  <PUBCHEM_CONFORMER_RMSD>
0.6

>  <PUBCHEM_CONFORMER_DIVERSEORDER>
1
34
39
15
52
36
27
50
11
25
12
21
49
24
10
26
51
28
9
35
23
5
48
22
7
6
56
16
14
8
43
33
57
41
44
47
17
2
13
40
54
38
19
55
3
46
37
42
45
4
31
29
20
18
53
32
30

>  <PUBCHEM_MMFF94_PARTIAL_CHARGES>
21
1 -0.34
10 0.54
11 1.02
12 0.09
14 -0.15
15 0.16
16 -0.15
17 0.41
2 -0.34
25 0.15
26 0.15
27 0.15
28 0.4
29 0.4
3 -0.34
4 -0.57
5 -0.66
6 -0.62
7 -0.9
8 0.3
9 0.3

>  <PUBCHEM_EFFECTIVE_ROTOR_COUNT>
5

>  <PUBCHEM_PHARMACOPHORE_FEATURES>
4
1 4 acceptor
1 7 donor
3 6 7 17 cation
6 6 12 14 15 16 17 rings

>  <PUBCHEM_HEAVY_ATOM_COUNT>
17

>  <PUBCHEM_ATOM_DEF_STEREO_COUNT>
0

>  <PUBCHEM_ATOM_UDEF_STEREO_COUNT>
0

>  <PUBCHEM_BOND_DEF_STEREO_COUNT>
0

>  <PUBCHEM_BOND_UDEF_STEREO_COUNT>
0

>  <PUBCHEM_ISOTOPIC_ATOM_COUNT>
0

>  <PUBCHEM_COMPONENT_COUNT>
1

>  <PUBCHEM_CACTVS_TAUTO_COUNT>
4

>  <PUBCHEM_CONFORMER_ID>
03B4807500000001

>  <PUBCHEM_MMFF94_ENERGY>
46.4854

>  <PUBCHEM_FEATURE_SELFOVERLAP>
20.297

>  <PUBCHEM_SHAPE_FINGERPRINT>
10219947 1 17894909628963092084
10465860 250 15502369036956747844
10465860 71 7997685449838355026
11031198 65 13901911072660411501
11132069 177 18201709669802216512
12346645 44 18343300340505036899
14252887 29 17895485726033134435
14787075 74 18200308969635373571
15207287 21 16588030108383801995
15295992 7 17917422194414929458
15309172 13 18187361034607026662
15375358 24 17676764280493163759
15775835 57 18131354089952476971
16945 1 17676211264366574983
18186145 218 18343016679674634078
200 152 17022618689438389205
201361 129 18128822949486683091
20233049 118 13686296855354322458
204376 136 18261394485415591718
22854114 59 18408042896684077241
23236772 104 18273492377691445015
23402539 116 18059568117983023326
23419403 2 15891022457449350078
23559900 14 17704080568579390278
3250762 1 17393307828851665406
4340502 62 18334587837048908707
465052 167 17022915570225550595
474 4 18341051908019649336
6333272 397 18410577313909419784
633830 44 18201998858661588316
7364860 26 17986396589775454606
76465 3 15864074329574832819
81228 2 17828469607683914562

>  <PUBCHEM_SHAPE_MULTIPOLES>
307.22
7.69
1.69
1.19
0.97
1.2
-0.09
-1.91
1.97
-0.55
0.16
0.05
-0.16
-0.43

>  <PUBCHEM_SHAPE_SELFOVERLAP>
634.756

>  <PUBCHEM_SHAPE_VOLUME>
177.5

>  <PUBCHEM_COORDINATE_TYPE>
2
5
10

$$$$
