62161643
 OpenBabel01182520543D

 26 26  0  0  0  0  0  0  0  0999 V2000
    3.3106    1.5521    0.4032 F   0  0  0  0  0  0  0  0  0  0  0  0
    4.7157   -0.0451   -0.0751 F   0  0  0  0  0  0  0  0  0  0  0  0
    3.0135    0.3306   -1.3850 F   0  0  0  0  0  0  0  0  0  0  0  0
    0.5875   -1.5543   -1.1915 O   0  0  0  0  0  0  0  0  0  0  0  0
    1.1740   -0.3258    0.7086 N   0  0  0  0  0  0  0  0  0  0  0  0
   -3.3565   -0.7843    0.6352 N   0  0  0  0  0  0  0  0  0  0  0  0
   -5.1058    0.7274    0.0592 N   0  0  0  0  0  0  0  0  0  0  0  0
    2.5923   -0.6780    0.7101 C   0  0  0  0  0  0  0  0  0  0  0  0
    0.2882   -0.8067   -0.2612 C   0  0  0  0  0  0  0  0  0  0  0  0
   -1.1201   -0.3851   -0.1916 C   0  0  0  0  0  0  0  0  0  0  0  0
    0.7430    0.5584    1.7824 C   0  0  0  0  0  0  0  0  0  0  0  0
    3.4096    0.3010   -0.0946 C   0  0  0  0  0  0  0  0  0  0  0  0
   -1.5593    0.7590   -0.8488 C   0  0  0  0  0  0  0  0  0  0  0  0
   -2.0499   -1.1155    0.5305 C   0  0  0  0  0  0  0  0  0  0  0  0
   -2.8961    1.1323   -0.7646 C   0  0  0  0  0  0  0  0  0  0  0  0
   -3.7466    0.3340   -0.0168 C   0  0  0  0  0  0  0  0  0  0  0  0
    2.9505   -0.7327    1.7435 H   0  0  0  0  0  0  0  0  0  0  0  0
    2.7008   -1.6753    0.2698 H   0  0  0  0  0  0  0  0  0  0  0  0
    0.9639    0.0741    2.7390 H   0  0  0  0  0  0  0  0  0  0  0  0
   -0.3191    0.8009    1.7667 H   0  0  0  0  0  0  0  0  0  0  0  0
    1.3038    1.4948    1.7198 H   0  0  0  0  0  0  0  0  0  0  0  0
   -0.8680    1.3654   -1.4278 H   0  0  0  0  0  0  0  0  0  0  0  0
   -1.7665   -2.0173    1.0646 H   0  0  0  0  0  0  0  0  0  0  0  0
   -3.2460    2.0236   -1.2751 H   0  0  0  0  0  0  0  0  0  0  0  0
   -5.3282    1.7113   -0.0296 H   0  0  0  0  0  0  0  0  0  0  0  0
   -5.7223    0.1445    0.6118 H   0  0  0  0  0  0  0  0  0  0  0  0
  1 12  1  0  0  0  0
  2 12  1  0  0  0  0
  3 12  1  0  0  0  0
  4  9  2  0  0  0  0
  5  8  1  0  0  0  0
  5  9  1  0  0  0  0
  5 11  1  0  0  0  0
  6 14  1  0  0  0  0
  6 16  2  0  0  0  0
  7 16  1  0  0  0  0
  7 25  1  0  0  0  0
  7 26  1  0  0  0  0
  8 12  1  0  0  0  0
  8 17  1  0  0  0  0
  8 18  1  0  0  0  0
  9 10  1  0  0  0  0
 10 13  1  0  0  0  0
 10 14  2  0  0  0  0
 11 19  1  0  0  0  0
 11 20  1  0  0  0  0
 11 21  1  0  0  0  0
 13 15  2  0  0  0  0
 13 22  1  0  0  0  0
 14 23  1  0  0  0  0
 15 16  1  0  0  0  0
 15 24  1  0  0  0  0
M  END
>  <PUBCHEM_COMPOUND_CID>
62161643

>  <PUBCHEM_CONFORMER_RMSD>
0.6

>  <PUBCHEM_CONFORMER_DIVERSEORDER>
2
10
29
30
11
14
12
20
17
15
13
25
22
31
16
18
9
19
8
28
21
26
4
7
27
23
6
24
5
3
1

>  <PUBCHEM_MMFF94_PARTIAL_CHARGES>
21
1 -0.34
10 0.09
11 0.3
12 1.02
13 -0.15
14 0.16
15 -0.15
16 0.41
2 -0.34
22 0.15
23 0.15
24 0.15
25 0.4
26 0.4
3 -0.34
4 -0.57
5 -0.66
6 -0.62
7 -0.9
8 0.3
9 0.54

>  <PUBCHEM_EFFECTIVE_ROTOR_COUNT>
4

>  <PUBCHEM_PHARMACOPHORE_FEATURES>
4
1 4 acceptor
1 7 donor
3 6 7 16 cation
6 6 10 13 14 15 16 rings

>  <PUBCHEM_HEAVY_ATOM_COUNT>
16

>  <PUBCHEM_ATOM_DEF_STEREO_COUNT>
0

>  <PUBCHEM_ATOM_UDEF_STEREO_COUNT>
0

>  <PUBCHEM_BOND_DEF_STEREO_COUNT>
0

>  <PUBCHEM_BOND_UDEF_STEREO_COUNT>
0

>  <PUBCHEM_ISOTOPIC_ATOM_COUNT>
0

>  <PUBCHEM_COMPONENT_COUNT>
1

>  <PUBCHEM_CACTVS_TAUTO_COUNT>
4

>  <PUBCHEM_CONFORMER_ID>
03B482EB00000002

>  <PUBCHEM_MMFF94_ENERGY>
47.6835

>  <PUBCHEM_FEATURE_SELFOVERLAP>
20.297

>  <PUBCHEM_SHAPE_FINGERPRINT>
11031198 65 17988921137365975487
11132069 177 17603862325443178549
11401426 45 16200145491611693130
12251169 10 17385724694591520959
12815109 37 8646767794189504829
13214271 11 18408603678180284639
14252887 29 13479131250967487848
14289901 80 17458063763516521313
14911166 2 17132112450503689946
14943859 89 17632856447030766798
14993402 34 15410894050608405169
15219456 202 18338519638278013503
16945 1 17346590863882619995
18186145 218 17917715725174675272
19050596 39 17385442141451366344
19862831 5 15841546375471646607
200 152 12179848303679963121
20233049 118 18273491265242259112
20510252 161 18115021884489390245
20528008 55 18040429988915514567
20645477 70 17560807572008877310
23402539 116 18186795894563195495
23402655 69 15626509371446880401
23557571 272 18261689154685011451
23559900 14 18040997289444505674
25 1 17846777386423461879
3060560 45 16415470528463787661
4990 188 16845291644148371333
7364860 26 17970340425891406274
74978 22 16343128255313868610
81228 2 17409339090394785127

>  <PUBCHEM_SHAPE_MULTIPOLES>
286.64
8.17
1.24
1.16
0.25
0.08
-0.14
2.07
-0.6
0.31
0.07
-0.59
-0.08
0.12

>  <PUBCHEM_SHAPE_SELFOVERLAP>
595.706

>  <PUBCHEM_SHAPE_VOLUME>
164.7

>  <PUBCHEM_COORDINATE_TYPE>
2
5
10

$$$$
