62161137
 OpenBabel01182520543D

 26 26  0  0  0  0  0  0  0  0999 V2000
    3.0751   -0.8105   -1.2577 F   0  0  0  0  0  0  0  0  0  0  0  0
    4.4341    0.1074    0.1792 F   0  0  0  0  0  0  0  0  0  0  0  0
    2.7120   -1.0276    0.8869 F   0  0  0  0  0  0  0  0  0  0  0  0
    0.2503    0.5332    1.8765 O   0  0  0  0  0  0  0  0  0  0  0  0
    0.9052    0.8177   -0.3493 N   0  0  0  0  0  0  0  0  0  0  0  0
   -3.1495   -1.2893   -0.2927 N   0  0  0  0  0  0  0  0  0  0  0  0
   -0.9586   -2.0803    0.1485 N   0  0  0  0  0  0  0  0  0  0  0  0
    2.3152    1.0917   -0.0800 C   0  0  0  0  0  0  0  0  0  0  0  0
   -0.0121    0.5592    0.6746 C   0  0  0  0  0  0  0  0  0  0  0  0
   -1.4089    0.2778    0.3066 C   0  0  0  0  0  0  0  0  0  0  0  0
    0.5174    0.8312   -1.7528 C   0  0  0  0  0  0  0  0  0  0  0  0
    3.1357   -0.1734   -0.0689 C   0  0  0  0  0  0  0  0  0  0  0  0
   -1.8736   -1.0020    0.0499 C   0  0  0  0  0  0  0  0  0  0  0  0
   -2.3115    1.3306    0.2053 C   0  0  0  0  0  0  0  0  0  0  0  0
   -3.6327    1.0749   -0.1448 C   0  0  0  0  0  0  0  0  0  0  0  0
   -3.9981   -0.2406   -0.3813 C   0  0  0  0  0  0  0  0  0  0  0  0
    2.6947    1.7997   -0.8243 H   0  0  0  0  0  0  0  0  0  0  0  0
    2.3921    1.5719    0.9018 H   0  0  0  0  0  0  0  0  0  0  0  0
    0.7429    1.8201   -2.1644 H   0  0  0  0  0  0  0  0  0  0  0  0
   -0.5378    0.6261   -1.9304 H   0  0  0  0  0  0  0  0  0  0  0  0
    1.1017    0.0800   -2.2912 H   0  0  0  0  0  0  0  0  0  0  0  0
   -1.9970    2.3533    0.3957 H   0  0  0  0  0  0  0  0  0  0  0  0
   -4.3536    1.8799   -0.2301 H   0  0  0  0  0  0  0  0  0  0  0  0
   -5.0165   -0.4929   -0.6575 H   0  0  0  0  0  0  0  0  0  0  0  0
    0.0157   -1.9100   -0.0683 H   0  0  0  0  0  0  0  0  0  0  0  0
   -1.3271   -3.0044   -0.0415 H   0  0  0  0  0  0  0  0  0  0  0  0
  1 12  1  0  0  0  0
  2 12  1  0  0  0  0
  3 12  1  0  0  0  0
  4  9  2  0  0  0  0
  5  8  1  0  0  0  0
  5  9  1  0  0  0  0
  5 11  1  0  0  0  0
  6 13  1  0  0  0  0
  6 16  2  0  0  0  0
  7 13  1  0  0  0  0
  7 25  1  0  0  0  0
  7 26  1  0  0  0  0
  8 12  1  0  0  0  0
  8 17  1  0  0  0  0
  8 18  1  0  0  0  0
  9 10  1  0  0  0  0
 10 13  2  0  0  0  0
 10 14  1  0  0  0  0
 11 19  1  0  0  0  0
 11 20  1  0  0  0  0
 11 21  1  0  0  0  0
 14 15  2  0  0  0  0
 14 22  1  0  0  0  0
 15 16  1  0  0  0  0
 15 23  1  0  0  0  0
 16 24  1  0  0  0  0
M  END
>  <PUBCHEM_COMPOUND_CID>
62161137

>  <PUBCHEM_CONFORMER_RMSD>
0.6

>  <PUBCHEM_CONFORMER_DIVERSEORDER>
1
25
16
11
15
27
6
14
12
24
21
5
17
10
26
8
23
13
22
9
28
19
3
7
20
2
4
18

>  <PUBCHEM_MMFF94_PARTIAL_CHARGES>
21
1 -0.34
10 0.09
11 0.3
12 1.02
13 0.41
14 -0.15
15 -0.15
16 0.16
2 -0.34
22 0.15
23 0.15
24 0.15
25 0.4
26 0.4
3 -0.34
4 -0.57
5 -0.66
6 -0.62
7 -0.9
8 0.3
9 0.54

>  <PUBCHEM_EFFECTIVE_ROTOR_COUNT>
4

>  <PUBCHEM_PHARMACOPHORE_FEATURES>
5
1 4 acceptor
1 6 acceptor
1 7 cation
1 7 donor
6 6 10 13 14 15 16 rings

>  <PUBCHEM_HEAVY_ATOM_COUNT>
16

>  <PUBCHEM_ATOM_DEF_STEREO_COUNT>
0

>  <PUBCHEM_ATOM_UDEF_STEREO_COUNT>
0

>  <PUBCHEM_BOND_DEF_STEREO_COUNT>
0

>  <PUBCHEM_BOND_UDEF_STEREO_COUNT>
0

>  <PUBCHEM_ISOTOPIC_ATOM_COUNT>
0

>  <PUBCHEM_COMPONENT_COUNT>
1

>  <PUBCHEM_CACTVS_TAUTO_COUNT>
4

>  <PUBCHEM_CONFORMER_ID>
03B480F100000001

>  <PUBCHEM_MMFF94_ENERGY>
48.6289

>  <PUBCHEM_FEATURE_SELFOVERLAP>
25.372

>  <PUBCHEM_SHAPE_FINGERPRINT>
10062212 137 18340758261501377499
10465860 250 17846774096525940808
11031198 65 14851873760245087113
11769659 78 18411131454784715983
124424 183 17847057783553272249
12500047 106 18413101766805373468
12592029 89 18188216394798259811
13296908 3 17346604053674289092
13571099 22 18060143102482248150
13581323 91 18411421726128788013
14144814 61 18334012782996503497
14943859 89 16226048902850567897
14993402 34 17967526878936064821
15207287 21 17418375817897176887
15219456 202 17774429611599908945
15309172 13 14201117912041661529
15375358 24 18131066048076272194
15775835 57 18040998418835768386
16945 1 18339365154129507233
17834072 14 18060421300335627924
18186145 218 18413109429058905433
200 152 16988843865043515660
20201158 50 17846503629402696990
20279233 1 17989210347715838718
20645476 183 17822283613648027683
23402539 116 18273207578563359573
23559900 14 18130505250128176632
25 1 15574709188281961337
57812782 119 18060418014764904181
69090 78 18407755945576636869
6992083 37 18041005046276482453
7364860 26 18197496448656230344
74978 22 17241337995820973933
76465 3 17489011777934358167
77492 1 17821441361670478681
81228 2 16700362748717284769
9709674 26 18342744056446529726
9981440 41 16959864298953491940

>  <PUBCHEM_SHAPE_MULTIPOLES>
286.64
6.84
1.48
1.15
1.88
0.43
0.04
0.44
0.68
-0.63
0.06
0.46
-0.18
-0.18

>  <PUBCHEM_SHAPE_SELFOVERLAP>
596.876

>  <PUBCHEM_SHAPE_VOLUME>
164.2

>  <PUBCHEM_COORDINATE_TYPE>
2
5
10

$$$$
