62160163
 OpenBabel01182520543D

 29 29  0  0  0  0  0  0  0  0999 V2000
    3.0704    0.2451    1.4481 F   0  0  0  0  0  0  0  0  0  0  0  0
    4.4284    0.1895   -0.2569 F   0  0  0  0  0  0  0  0  0  0  0  0
    2.7024    1.5216   -0.2877 F   0  0  0  0  0  0  0  0  0  0  0  0
    0.2420    0.6738   -1.9319 O   0  0  0  0  0  0  0  0  0  0  0  0
    0.9023   -0.7012   -0.1608 N   0  0  0  0  0  0  0  0  0  0  0  0
   -3.1573    1.1297    0.8649 N   0  0  0  0  0  0  0  0  0  0  0  0
   -0.9690    2.0416    0.8859 N   0  0  0  0  0  0  0  0  0  0  0  0
    2.3122   -0.7960   -0.5329 C   0  0  0  0  0  0  0  0  0  0  0  0
    0.5173   -1.4278    1.0411 C   0  0  0  0  0  0  0  0  0  0  0  0
   -0.0177    0.0394   -0.9101 C   0  0  0  0  0  0  0  0  0  0  0  0
   -1.4144    0.0903   -0.4493 C   0  0  0  0  0  0  0  0  0  0  0  0
    3.1299    0.3012    0.1006 C   0  0  0  0  0  0  0  0  0  0  0  0
    0.0882   -2.8444    0.7192 C   0  0  0  0  0  0  0  0  0  0  0  0
   -1.8815    1.0604    0.4230 C   0  0  0  0  0  0  0  0  0  0  0  0
   -2.3145   -0.8703   -0.8969 C   0  0  0  0  0  0  0  0  0  0  0  0
   -3.6355   -0.8321   -0.4646 C   0  0  0  0  0  0  0  0  0  0  0  0
   -4.0032    0.1791    0.4083 C   0  0  0  0  0  0  0  0  0  0  0  0
    2.6986   -1.7827   -0.2570 H   0  0  0  0  0  0  0  0  0  0  0  0
    2.3873   -0.7075   -1.6224 H   0  0  0  0  0  0  0  0  0  0  0  0
    1.3641   -1.4478    1.7360 H   0  0  0  0  0  0  0  0  0  0  0  0
   -0.2918   -0.9146    1.5668 H   0  0  0  0  0  0  0  0  0  0  0  0
   -0.7566   -2.8846    0.0301 H   0  0  0  0  0  0  0  0  0  0  0  0
    0.9079   -3.4073    0.2603 H   0  0  0  0  0  0  0  0  0  0  0  0
   -0.2020   -3.3669    1.6364 H   0  0  0  0  0  0  0  0  0  0  0  0
   -2.0032   -1.6457   -1.5916 H   0  0  0  0  0  0  0  0  0  0  0  0
   -4.3551   -1.5689   -0.8025 H   0  0  0  0  0  0  0  0  0  0  0  0
   -5.0219    0.2534    0.7746 H   0  0  0  0  0  0  0  0  0  0  0  0
    0.0063    1.7882    0.9843 H   0  0  0  0  0  0  0  0  0  0  0  0
   -1.3391    2.7394    1.5199 H   0  0  0  0  0  0  0  0  0  0  0  0
  1 12  1  0  0  0  0
  2 12  1  0  0  0  0
  3 12  1  0  0  0  0
  4 10  2  0  0  0  0
  5  8  1  0  0  0  0
  5  9  1  0  0  0  0
  5 10  1  0  0  0  0
  6 14  1  0  0  0  0
  6 17  2  0  0  0  0
  7 14  1  0  0  0  0
  7 28  1  0  0  0  0
  7 29  1  0  0  0  0
  8 12  1  0  0  0  0
  8 18  1  0  0  0  0
  8 19  1  0  0  0  0
  9 13  1  0  0  0  0
  9 20  1  0  0  0  0
  9 21  1  0  0  0  0
 10 11  1  0  0  0  0
 11 14  2  0  0  0  0
 11 15  1  0  0  0  0
 13 22  1  0  0  0  0
 13 23  1  0  0  0  0
 13 24  1  0  0  0  0
 15 16  2  0  0  0  0
 15 25  1  0  0  0  0
 16 17  1  0  0  0  0
 16 26  1  0  0  0  0
 17 27  1  0  0  0  0
M  END
>  <PUBCHEM_COMPOUND_CID>
62160163

>  <PUBCHEM_CONFORMER_RMSD>
0.6

>  <PUBCHEM_CONFORMER_DIVERSEORDER>
1
21
30
41
43
14
6
38
8
5
34
15
29
45
13
23
47
19
4
16
33
31
7
44
42
35
18
46
32
20
40
28
25
2
36
3
24
17
39
37
12
27
26
11
22
9
10

>  <PUBCHEM_MMFF94_PARTIAL_CHARGES>
21
1 -0.34
10 0.54
11 0.09
12 1.02
14 0.41
15 -0.15
16 -0.15
17 0.16
2 -0.34
25 0.15
26 0.15
27 0.15
28 0.4
29 0.4
3 -0.34
4 -0.57
5 -0.66
6 -0.62
7 -0.9
8 0.3
9 0.3

>  <PUBCHEM_EFFECTIVE_ROTOR_COUNT>
5

>  <PUBCHEM_PHARMACOPHORE_FEATURES>
5
1 4 acceptor
1 6 acceptor
1 7 cation
1 7 donor
6 6 11 14 15 16 17 rings

>  <PUBCHEM_HEAVY_ATOM_COUNT>
17

>  <PUBCHEM_ATOM_DEF_STEREO_COUNT>
0

>  <PUBCHEM_ATOM_UDEF_STEREO_COUNT>
0

>  <PUBCHEM_BOND_DEF_STEREO_COUNT>
0

>  <PUBCHEM_BOND_UDEF_STEREO_COUNT>
0

>  <PUBCHEM_ISOTOPIC_ATOM_COUNT>
0

>  <PUBCHEM_COMPONENT_COUNT>
1

>  <PUBCHEM_CACTVS_TAUTO_COUNT>
4

>  <PUBCHEM_CONFORMER_ID>
03B47D2300000001

>  <PUBCHEM_MMFF94_ENERGY>
47.5326

>  <PUBCHEM_FEATURE_SELFOVERLAP>
25.372

>  <PUBCHEM_SHAPE_FINGERPRINT>
10219947 1 17530683212264836214
108231 29 18268711795554538499
11031198 65 14548740556293429445
11132069 177 18201432592893155033
12491281 212 18130797762511636907
13172582 1 17603873324796511878
14787075 74 18267866275465800587
14993402 34 17821730567514365318
15209289 33 18336834069989190818
15219456 202 16845304791074997573
15309172 13 17967250892785373830
15375462 6 17846502482667508759
15775835 57 18272375234858850769
16945 1 17967255286695134463
18186145 218 18410292493216599526
201361 129 18268716004401052883
204376 136 17967818283787700798
23175994 123 14261359063021075450
23236772 104 18413107247537123051
23402539 116 18342449365971214430
23419403 2 16320283900087702006
23557571 272 17417820560203756741
23559900 14 18130510717157580966
2748010 2 17316191441991764295
296302 2 16298385751541025397
34934 24 18343017745201141061
4340502 62 17968109594972561019
474 4 18336270114696651228
568465 68 18042427848856493643
57426455 19 18409171047159207299
6333272 397 18334861657539082450
7364860 26 18055075363132796471

>  <PUBCHEM_SHAPE_MULTIPOLES>
307.22
6.43
1.89
1.22
1.36
0.88
0.14
-1.21
-0.5
-0.04
-0.61
0.04
-0.09
-0.56

>  <PUBCHEM_SHAPE_SELFOVERLAP>
635.951

>  <PUBCHEM_SHAPE_VOLUME>
177

>  <PUBCHEM_COORDINATE_TYPE>
2
5
10

$$$$
