62160972
 OpenBabel01182520543D

 32 33  0  0  0  0  0  0  0  0999 V2000
    0.9454   -2.5900   -0.7471 O   0  0  0  0  0  0  0  0  0  0  0  0
   -0.2904   -1.2703    0.7049 N   0  0  0  0  0  0  0  0  0  0  0  0
   -3.9230    2.2484   -0.0572 N   0  0  0  0  0  0  0  0  0  0  0  0
    4.3121   -0.1654   -0.1824 N   0  0  0  0  0  0  0  0  0  0  0  0
    5.1233    2.0500    0.1506 N   0  0  0  0  0  0  0  0  0  0  0  0
   -2.4846   -1.8010   -0.3036 C   0  0  0  0  0  0  0  0  0  0  0  0
   -1.4495   -2.1313    0.7689 C   0  0  0  0  0  0  0  0  0  0  0  0
   -2.9889   -0.3813   -0.2174 C   0  0  0  0  0  0  0  0  0  0  0  0
    0.8482   -1.5575   -0.0585 C   0  0  0  0  0  0  0  0  0  0  0  0
   -4.1013   -0.0820    0.5613 C   0  0  0  0  0  0  0  0  0  0  0  0
   -2.3429    0.6326   -0.9161 C   0  0  0  0  0  0  0  0  0  0  0  0
    1.9415   -0.6034    0.0009 C   0  0  0  0  0  0  0  0  0  0  0  0
    1.7082    0.7379    0.2843 C   0  0  0  0  0  0  0  0  0  0  0  0
   -4.5246    1.2366    0.6076 C   0  0  0  0  0  0  0  0  0  0  0  0
   -2.8449    1.9192   -0.8037 C   0  0  0  0  0  0  0  0  0  0  0  0
    3.2498   -1.0009   -0.2227 C   0  0  0  0  0  0  0  0  0  0  0  0
    2.7753    1.6279    0.3344 C   0  0  0  0  0  0  0  0  0  0  0  0
    4.0464    1.1306    0.0959 C   0  0  0  0  0  0  0  0  0  0  0  0
   -2.0570   -1.9694   -1.3007 H   0  0  0  0  0  0  0  0  0  0  0  0
   -3.3303   -2.4951   -0.2206 H   0  0  0  0  0  0  0  0  0  0  0  0
   -1.8797   -2.0128    1.7696 H   0  0  0  0  0  0  0  0  0  0  0  0
   -1.1272   -3.1727    0.6626 H   0  0  0  0  0  0  0  0  0  0  0  0
   -0.3103   -0.4449    1.2943 H   0  0  0  0  0  0  0  0  0  0  0  0
   -4.6275   -0.8481    1.1204 H   0  0  0  0  0  0  0  0  0  0  0  0
   -1.4743    0.4358   -1.5350 H   0  0  0  0  0  0  0  0  0  0  0  0
    0.7097    1.1332    0.4447 H   0  0  0  0  0  0  0  0  0  0  0  0
    3.5029   -2.0331   -0.4450 H   0  0  0  0  0  0  0  0  0  0  0  0
   -5.3869    1.5224    1.2008 H   0  0  0  0  0  0  0  0  0  0  0  0
   -2.3773    2.7455   -1.3289 H   0  0  0  0  0  0  0  0  0  0  0  0
    2.6005    2.6771    0.5496 H   0  0  0  0  0  0  0  0  0  0  0  0
    4.9399    3.0207   -0.0715 H   0  0  0  0  0  0  0  0  0  0  0  0
    6.0496    1.6835   -0.0305 H   0  0  0  0  0  0  0  0  0  0  0  0
  1  9  2  0  0  0  0
  2  7  1  0  0  0  0
  2  9  1  0  0  0  0
  2 23  1  0  0  0  0
  3 14  2  0  0  0  0
  3 15  1  0  0  0  0
  4 16  1  0  0  0  0
  4 18  2  0  0  0  0
  5 18  1  0  0  0  0
  5 31  1  0  0  0  0
  5 32  1  0  0  0  0
  6  7  1  0  0  0  0
  6  8  1  0  0  0  0
  6 19  1  0  0  0  0
  6 20  1  0  0  0  0
  7 21  1  0  0  0  0
  7 22  1  0  0  0  0
  8 10  2  0  0  0  0
  8 11  1  0  0  0  0
  9 12  1  0  0  0  0
 10 14  1  0  0  0  0
 10 24  1  0  0  0  0
 11 15  2  0  0  0  0
 11 25  1  0  0  0  0
 12 13  1  0  0  0  0
 12 16  2  0  0  0  0
 13 17  2  0  0  0  0
 13 26  1  0  0  0  0
 14 28  1  0  0  0  0
 15 29  1  0  0  0  0
 16 27  1  0  0  0  0
 17 18  1  0  0  0  0
 17 30  1  0  0  0  0
M  END
>  <PUBCHEM_COMPOUND_CID>
62160972

>  <PUBCHEM_CONFORMER_RMSD>
0.6

>  <PUBCHEM_CONFORMER_DIVERSEORDER>
1
9
42
24
13
48
50
20
39
6
10
11
23
49
14
15
47
8
29
12
34
38
7
46
33
18
43
16
41
37
53
3
57
55
44
40
5
36
19
28
17
52
31
54
35
21
25
27
51
2
56
45
58
4
22
26
30
32

>  <PUBCHEM_MMFF94_PARTIAL_CHARGES>
28
1 -0.57
10 -0.15
11 -0.15
12 0.09
13 -0.15
14 0.16
15 0.16
16 0.16
17 -0.15
18 0.41
2 -0.73
23 0.37
24 0.15
25 0.15
26 0.15
27 0.15
28 0.15
29 0.15
3 -0.62
30 0.15
31 0.4
32 0.4
4 -0.62
5 -0.9
6 0.14
7 0.3
8 -0.14
9 0.54

>  <PUBCHEM_EFFECTIVE_ROTOR_COUNT>
5

>  <PUBCHEM_PHARMACOPHORE_FEATURES>
7
1 1 acceptor
1 2 donor
1 3 acceptor
1 5 donor
3 4 5 18 cation
6 3 8 10 11 14 15 rings
6 4 12 13 16 17 18 rings

>  <PUBCHEM_HEAVY_ATOM_COUNT>
18

>  <PUBCHEM_ATOM_DEF_STEREO_COUNT>
0

>  <PUBCHEM_ATOM_UDEF_STEREO_COUNT>
0

>  <PUBCHEM_BOND_DEF_STEREO_COUNT>
0

>  <PUBCHEM_BOND_UDEF_STEREO_COUNT>
0

>  <PUBCHEM_ISOTOPIC_ATOM_COUNT>
0

>  <PUBCHEM_COMPONENT_COUNT>
1

>  <PUBCHEM_CACTVS_TAUTO_COUNT>
7

>  <PUBCHEM_CONFORMER_ID>
03B4804C00000001

>  <PUBCHEM_MMFF94_ENERGY>
50.4294

>  <PUBCHEM_FEATURE_SELFOVERLAP>
35.521

>  <PUBCHEM_SHAPE_FINGERPRINT>
10498660 4 18188481381501074453
10608611 8 18410291419263804695
10646746 165 18408604777475575942
11046707 91 9367354742485522338
11615756 256 18335704982973709772
11715629 250 18409448059860082703
12363563 72 9583513252565425865
12596602 18 16298385828829766728
12633257 1 18263070042146242386
13464514 151 18338520729273618042
14123255 352 18335698342927824885
14123255 52 18337388245323841673
14251764 75 18126574410160681793
14466204 15 18338504357454359256
15196674 1 18410855460133456041
17834072 32 18409729530399518037
18186145 218 18201723955121925338
20645477 56 18335989700677154479
20645477 70 17560814212397510510
21652331 79 18335420171070985089
21864079 5 18336820901566174545
22182937 141 18410862061994043027
23227448 37 18411981386332381119
23402655 69 18202846569489549844
23557571 272 18191309484105609443
23559900 14 18271805675763527330
25 1 18340485577821386474
27216 239 18260833691978644017
3524813 1 18335417924734764413
4028521 119 18261661636940114679
5104073 3 18334576828092934426
633830 44 18342453725421087958

>  <PUBCHEM_SHAPE_MULTIPOLES>
344.64
9.93
2.67
0.83
3.12
0.25
0.03
-6.3
-0.65
-0.4
0.11
-0.41
0.03
0.56

>  <PUBCHEM_SHAPE_SELFOVERLAP>
730.428

>  <PUBCHEM_SHAPE_VOLUME>
189.8

>  <PUBCHEM_COORDINATE_TYPE>
2
5
10

$$$$
