62160147
 OpenBabel01182520543D

 30 31  0  0  1  0  0  0  0  0999 V2000
   -0.1293    2.4180   -0.5208 O   0  0  0  0  0  0  0  0  0  0  0  0
    1.2493    0.5825   -0.1682 N   0  0  0  0  0  0  0  0  0  0  0  0
   -2.9654   -0.6400    1.0249 N   0  0  0  0  0  0  0  0  0  0  0  0
   -1.3463    0.6967    2.1259 N   0  0  0  0  0  0  0  0  0  0  0  0
    2.9900   -1.0109   -0.2813 C   0  0  2  0  0  0  0  0  0  0  0  0
    3.5589    0.3215    0.2115 C   0  0  0  0  0  0  0  0  0  0  0  0
    1.4939   -0.8511   -0.0108 C   0  0  0  0  0  0  0  0  0  0  0  0
    2.5020    1.3208   -0.2330 C   0  0  0  0  0  0  0  0  0  0  0  0
    3.6013   -2.2169    0.4081 C   0  0  0  0  0  0  0  0  0  0  0  0
    0.0251    1.2146   -0.3216 C   0  0  0  0  0  0  0  0  0  0  0  0
   -1.1847    0.3798   -0.2535 C   0  0  0  0  0  0  0  0  0  0  0  0
   -1.8544    0.1249    0.9324 C   0  0  0  0  0  0  0  0  0  0  0  0
   -1.6874   -0.1866   -1.4196 C   0  0  0  0  0  0  0  0  0  0  0  0
   -2.8284   -0.9796   -1.3649 C   0  0  0  0  0  0  0  0  0  0  0  0
   -3.4247   -1.1737   -0.1292 C   0  0  0  0  0  0  0  0  0  0  0  0
    3.1545   -1.0880   -1.3643 H   0  0  0  0  0  0  0  0  0  0  0  0
    4.5453    0.5449   -0.2051 H   0  0  0  0  0  0  0  0  0  0  0  0
    3.6400    0.3255    1.3056 H   0  0  0  0  0  0  0  0  0  0  0  0
    0.8828   -1.4339   -0.7054 H   0  0  0  0  0  0  0  0  0  0  0  0
    1.2234   -1.1223    1.0158 H   0  0  0  0  0  0  0  0  0  0  0  0
    2.4591    2.2126    0.3992 H   0  0  0  0  0  0  0  0  0  0  0  0
    2.6535    1.6319   -1.2727 H   0  0  0  0  0  0  0  0  0  0  0  0
    3.4603   -2.1737    1.4934 H   0  0  0  0  0  0  0  0  0  0  0  0
    4.6767   -2.2704    0.2100 H   0  0  0  0  0  0  0  0  0  0  0  0
    3.1420   -3.1421    0.0452 H   0  0  0  0  0  0  0  0  0  0  0  0
   -1.1987   -0.0182   -2.3755 H   0  0  0  0  0  0  0  0  0  0  0  0
   -3.2379   -1.4316   -2.2610 H   0  0  0  0  0  0  0  0  0  0  0  0
   -4.3166   -1.7839   -0.0327 H   0  0  0  0  0  0  0  0  0  0  0  0
   -1.8580    0.4957    2.9766 H   0  0  0  0  0  0  0  0  0  0  0  0
   -0.3481    0.8480    2.2035 H   0  0  0  0  0  0  0  0  0  0  0  0
  1 10  2  0  0  0  0
  2  7  1  0  0  0  0
  2  8  1  0  0  0  0
  2 10  1  0  0  0  0
  3 12  1  0  0  0  0
  3 15  2  0  0  0  0
  4 12  1  0  0  0  0
  4 29  1  0  0  0  0
  4 30  1  0  0  0  0
  5  6  1  0  0  0  0
  5  7  1  0  0  0  0
  5  9  1  0  0  0  0
  5 16  1  6  0  0  0
  6  8  1  0  0  0  0
  6 17  1  0  0  0  0
  6 18  1  0  0  0  0
  7 19  1  0  0  0  0
  7 20  1  0  0  0  0
  8 21  1  0  0  0  0
  8 22  1  0  0  0  0
  9 23  1  0  0  0  0
  9 24  1  0  0  0  0
  9 25  1  0  0  0  0
 10 11  1  0  0  0  0
 11 12  2  0  0  0  0
 11 13  1  0  0  0  0
 13 14  2  0  0  0  0
 13 26  1  0  0  0  0
 14 15  1  0  0  0  0
 14 27  1  0  0  0  0
 15 28  1  0  0  0  0
M  END
>  <PUBCHEM_COMPOUND_CID>
62160147

>  <PUBCHEM_CONFORMER_RMSD>
0.6

>  <PUBCHEM_CONFORMER_DIVERSEORDER>
1
19
10
16
4
6
18
20
11
15
8
13
2
12
5
17
14
7
3
9

>  <PUBCHEM_MMFF94_PARTIAL_CHARGES>
17
1 -0.57
10 0.54
11 0.09
12 0.41
13 -0.15
14 -0.15
15 0.16
2 -0.66
26 0.15
27 0.15
28 0.15
29 0.4
3 -0.62
30 0.4
4 -0.9
7 0.3
8 0.3

>  <PUBCHEM_EFFECTIVE_ROTOR_COUNT>
3

>  <PUBCHEM_PHARMACOPHORE_FEATURES>
6
1 1 acceptor
1 3 acceptor
1 4 cation
1 4 donor
5 2 5 6 7 8 rings
6 3 11 12 13 14 15 rings

>  <PUBCHEM_HEAVY_ATOM_COUNT>
15

>  <PUBCHEM_ATOM_DEF_STEREO_COUNT>
0

>  <PUBCHEM_ATOM_UDEF_STEREO_COUNT>
1

>  <PUBCHEM_BOND_DEF_STEREO_COUNT>
0

>  <PUBCHEM_BOND_UDEF_STEREO_COUNT>
0

>  <PUBCHEM_ISOTOPIC_ATOM_COUNT>
0

>  <PUBCHEM_COMPONENT_COUNT>
1

>  <PUBCHEM_CACTVS_TAUTO_COUNT>
4

>  <PUBCHEM_CONFORMER_ID>
03B47D1300000001

>  <PUBCHEM_MMFF94_ENERGY>
49.1599

>  <PUBCHEM_FEATURE_SELFOVERLAP>
30.446

>  <PUBCHEM_SHAPE_FINGERPRINT>
10618630 7 18335421244702000526
11127187 94 17022906735383052323
11137873 295 18114461167264666215
11578080 2 17772722018624191329
11769659 78 18272927249925873591
12202030 40 17386868242519054467
12824470 246 17986379204196240023
12932764 1 18060138751844212752
13296908 3 18334008384960541998
14787075 74 16478506908816315960
15375462 189 17916585482834571235
16945 1 18195802088283892725
17780758 139 17200506309428660706
18186145 218 16877935023269335109
18534176 82 15647059269634763035
19422 9 18059583485576559222
19868273 293 13334733526831178087
200 152 18342166782660826263
20201158 50 17821726164977668914
20279233 1 17676202498459616954
20361792 2 18410292518780571157
204376 136 17976256060995785764
20645477 70 18335971021706278463
20653085 51 10881397616925674989
20711985 344 17532359864560794228
21524375 3 7997974574051605965
22445834 79 18131075947543327283
23419403 2 13565442995357927521
23526113 38 17676759967818653209
23557571 272 15575572395014388669
23559900 14 16153977037454233104
27216 239 12247092243811137358
581208 293 18337668719699831388
77492 1 17988932222644820389
81228 2 17895747388078464644
90316 7 16988570091154177009

>  <PUBCHEM_SHAPE_MULTIPOLES>
287.88
6.29
1.85
1.28
2.14
0.13
0.36
-3.35
0.17
1.13
-0.12
-1.15
0.05
-0.52

>  <PUBCHEM_SHAPE_SELFOVERLAP>
605.723

>  <PUBCHEM_SHAPE_VOLUME>
163.4

>  <PUBCHEM_COORDINATE_TYPE>
2
5
10

$$$$
