62160515
 OpenBabel01182520543D

 32 32  0  0  0  0  0  0  0  0999 V2000
    4.7109    0.5313    0.0242 F   0  0  0  0  0  0  0  0  0  0  0  0
    3.3240   -0.1264   -1.5245 F   0  0  0  0  0  0  0  0  0  0  0  0
    2.9866    1.7655   -0.4830 F   0  0  0  0  0  0  0  0  0  0  0  0
    0.5740    1.7176    1.4162 O   0  0  0  0  0  0  0  0  0  0  0  0
    1.1740   -0.2849    0.3670 N   0  0  0  0  0  0  0  0  0  0  0  0
   -2.9089    1.0376   -1.2098 N   0  0  0  0  0  0  0  0  0  0  0  0
   -5.1222    0.2855   -0.7485 N   0  0  0  0  0  0  0  0  0  0  0  0
    0.7524   -1.4230   -0.4018 C   0  0  0  0  0  0  0  0  0  0  0  0
    2.5992   -0.2296    0.7223 C   0  0  0  0  0  0  0  0  0  0  0  0
    0.3127   -2.5872    0.4778 C   0  0  0  0  0  0  0  0  0  0  0  0
    0.2711    0.7225    0.7588 C   0  0  0  0  0  0  0  0  0  0  0  0
    3.4066    0.4919   -0.3272 C   0  0  0  0  0  0  0  0  0  0  0  0
   -0.1149   -3.8051   -0.3287 C   0  0  0  0  0  0  0  0  0  0  0  0
   -1.1466    0.5958    0.3851 C   0  0  0  0  0  0  0  0  0  0  0  0
   -2.0522   -0.0531    1.2172 C   0  0  0  0  0  0  0  0  0  0  0  0
   -1.6210    1.1190   -0.8069 C   0  0  0  0  0  0  0  0  0  0  0  0
   -3.3857   -0.1573    0.8371 C   0  0  0  0  0  0  0  0  0  0  0  0
   -3.7600    0.3998   -0.3752 C   0  0  0  0  0  0  0  0  0  0  0  0
    1.5794   -1.7416   -1.0474 H   0  0  0  0  0  0  0  0  0  0  0  0
   -0.0606   -1.1519   -1.0817 H   0  0  0  0  0  0  0  0  0  0  0  0
    2.6947    0.3058    1.6733 H   0  0  0  0  0  0  0  0  0  0  0  0
    2.9744   -1.2465    0.8772 H   0  0  0  0  0  0  0  0  0  0  0  0
    1.1377   -2.8797    1.1388 H   0  0  0  0  0  0  0  0  0  0  0  0
   -0.5100   -2.2962    1.1356 H   0  0  0  0  0  0  0  0  0  0  0  0
   -0.9681   -3.5666   -0.9717 H   0  0  0  0  0  0  0  0  0  0  0  0
    0.7039   -4.1628   -0.9609 H   0  0  0  0  0  0  0  0  0  0  0  0
   -0.4096   -4.6196    0.3404 H   0  0  0  0  0  0  0  0  0  0  0  0
   -1.7323   -0.4717    2.1675 H   0  0  0  0  0  0  0  0  0  0  0  0
   -0.9615    1.6360   -1.4975 H   0  0  0  0  0  0  0  0  0  0  0  0
   -4.0985   -0.6599    1.4826 H   0  0  0  0  0  0  0  0  0  0  0  0
   -5.6524   -0.5040   -0.4008 H   0  0  0  0  0  0  0  0  0  0  0  0
   -5.3899    0.6885   -1.6379 H   0  0  0  0  0  0  0  0  0  0  0  0
  1 12  1  0  0  0  0
  2 12  1  0  0  0  0
  3 12  1  0  0  0  0
  4 11  2  0  0  0  0
  5  8  1  0  0  0  0
  5  9  1  0  0  0  0
  5 11  1  0  0  0  0
  6 16  1  0  0  0  0
  6 18  2  0  0  0  0
  7 18  1  0  0  0  0
  7 31  1  0  0  0  0
  7 32  1  0  0  0  0
  8 10  1  0  0  0  0
  8 19  1  0  0  0  0
  8 20  1  0  0  0  0
  9 12  1  0  0  0  0
  9 21  1  0  0  0  0
  9 22  1  0  0  0  0
 10 13  1  0  0  0  0
 10 23  1  0  0  0  0
 10 24  1  0  0  0  0
 11 14  1  0  0  0  0
 13 25  1  0  0  0  0
 13 26  1  0  0  0  0
 13 27  1  0  0  0  0
 14 15  1  0  0  0  0
 14 16  2  0  0  0  0
 15 17  2  0  0  0  0
 15 28  1  0  0  0  0
 16 29  1  0  0  0  0
 17 18  1  0  0  0  0
 17 30  1  0  0  0  0
M  END
>  <PUBCHEM_COMPOUND_CID>
62160515

>  <PUBCHEM_CONFORMER_RMSD>
0.8

>  <PUBCHEM_CONFORMER_DIVERSEORDER>
1
9
27
8
38
35
15
30
40
29
43
2
34
21
7
32
44
28
20
37
39
10
36
6
3
22
4
18
25
42
12
11
17
19
13
41
33
5
31
16
14
24
23
26

>  <PUBCHEM_MMFF94_PARTIAL_CHARGES>
21
1 -0.34
11 0.54
12 1.02
14 0.09
15 -0.15
16 0.16
17 -0.15
18 0.41
2 -0.34
28 0.15
29 0.15
3 -0.34
30 0.15
31 0.4
32 0.4
4 -0.57
5 -0.66
6 -0.62
7 -0.9
8 0.3
9 0.3

>  <PUBCHEM_EFFECTIVE_ROTOR_COUNT>
6

>  <PUBCHEM_PHARMACOPHORE_FEATURES>
5
1 13 hydrophobe
1 4 acceptor
1 7 donor
3 6 7 18 cation
6 6 14 15 16 17 18 rings

>  <PUBCHEM_HEAVY_ATOM_COUNT>
18

>  <PUBCHEM_ATOM_DEF_STEREO_COUNT>
0

>  <PUBCHEM_ATOM_UDEF_STEREO_COUNT>
0

>  <PUBCHEM_BOND_DEF_STEREO_COUNT>
0

>  <PUBCHEM_BOND_UDEF_STEREO_COUNT>
0

>  <PUBCHEM_ISOTOPIC_ATOM_COUNT>
0

>  <PUBCHEM_COMPONENT_COUNT>
1

>  <PUBCHEM_CACTVS_TAUTO_COUNT>
4

>  <PUBCHEM_CONFORMER_ID>
03B47E8300000001

>  <PUBCHEM_MMFF94_ENERGY>
46.2218

>  <PUBCHEM_FEATURE_SELFOVERLAP>
25.371

>  <PUBCHEM_SHAPE_FINGERPRINT>
10871710 139 16529225215653318076
12119455 92 18113613491233974358
12251169 10 9367336051030807041
13052359 8 18338232790455828346
13149001 5 18058168517243691216
15309172 13 18410581694765544763
15375358 24 17968095296657179845
15502722 9 18265613182566584215
16945 1 17561359586685041897
18186145 218 18340779177801886648
187816 3 18202004330713647888
19422 9 16845302591856634136
20344682 1 18113615681809739813
20344682 6 18335696114082501797
20645476 183 18261390087458959282
20645477 70 18263637364930564123
21160774 45 18337953518902621067
21501502 16 18122340177811707913
21524375 3 18259705596995645746
23114952 82 17900822652305447439
23227448 37 18048042062634216380
23402539 116 17167858690630851035
23557571 272 17168728378727442939
23559900 14 17095239190369296280
2748010 2 18055348308303905411
3060560 45 18408038503001099036
4175511 335 18338792299897183503
58051976 378 18410575067504393383
633830 44 18059308581636164696
81228 2 17689142830900517170
81539 233 18187925036759149555
8272917 22 18268712710672573207
9925002 15 17683256019959652711

>  <PUBCHEM_SHAPE_MULTIPOLES>
327.8
7.32
2.52
1.17
1.06
3.57
0.01
-3.01
-1.95
-0.81
-0.18
0.21
-0.24
0.25

>  <PUBCHEM_SHAPE_SELFOVERLAP>
672.267

>  <PUBCHEM_SHAPE_VOLUME>
190.4

>  <PUBCHEM_COORDINATE_TYPE>
2
5
10

$$$$
