62160659
 OpenBabel01182520543D

 30 31  0  0  1  0  0  0  0  0999 V2000
    0.3513    2.5808    0.2448 O   0  0  0  0  0  0  0  0  0  0  0  0
    1.5409    0.5947    0.0612 N   0  0  0  0  0  0  0  0  0  0  0  0
   -3.0300    0.2907   -0.9881 N   0  0  0  0  0  0  0  0  0  0  0  0
   -4.5530   -1.3095   -0.0954 N   0  0  0  0  0  0  0  0  0  0  0  0
    3.0942   -1.0797   -0.5433 C   0  0  2  0  0  0  0  0  0  0  0  0
    3.8246    0.0375    0.2050 C   0  0  0  0  0  0  0  0  0  0  0  0
    1.6380   -0.8513   -0.1377 C   0  0  0  0  0  0  0  0  0  0  0  0
    2.8609    1.2076    0.0817 C   0  0  0  0  0  0  0  0  0  0  0  0
    3.6048   -2.4669   -0.1992 C   0  0  0  0  0  0  0  0  0  0  0  0
    0.3854    1.3558    0.1465 C   0  0  0  0  0  0  0  0  0  0  0  0
   -0.9022    0.6448    0.1035 C   0  0  0  0  0  0  0  0  0  0  0  0
   -1.2254   -0.3116    1.0598 C   0  0  0  0  0  0  0  0  0  0  0  0
   -1.8306    0.9070   -0.8909 C   0  0  0  0  0  0  0  0  0  0  0  0
   -2.4499   -0.9672    0.9932 C   0  0  0  0  0  0  0  0  0  0  0  0
   -3.3091   -0.6328   -0.0411 C   0  0  0  0  0  0  0  0  0  0  0  0
    3.1985   -0.9105   -1.6233 H   0  0  0  0  0  0  0  0  0  0  0  0
    4.8086    0.2616   -0.2169 H   0  0  0  0  0  0  0  0  0  0  0  0
    3.9570   -0.2278    1.2613 H   0  0  0  0  0  0  0  0  0  0  0  0
    0.9330   -1.1911   -0.9021 H   0  0  0  0  0  0  0  0  0  0  0  0
    1.4076   -1.3408    0.8141 H   0  0  0  0  0  0  0  0  0  0  0  0
    2.9433    1.9225    0.9058 H   0  0  0  0  0  0  0  0  0  0  0  0
    2.9959    1.7429   -0.8648 H   0  0  0  0  0  0  0  0  0  0  0  0
    3.5220   -2.6713    0.8736 H   0  0  0  0  0  0  0  0  0  0  0  0
    4.6574   -2.5713   -0.4816 H   0  0  0  0  0  0  0  0  0  0  0  0
    3.0318   -3.2319   -0.7333 H   0  0  0  0  0  0  0  0  0  0  0  0
   -0.5458   -0.5424    1.8754 H   0  0  0  0  0  0  0  0  0  0  0  0
   -1.6354    1.6412   -1.6667 H   0  0  0  0  0  0  0  0  0  0  0  0
   -2.7111   -1.7108    1.7391 H   0  0  0  0  0  0  0  0  0  0  0  0
   -5.1751   -1.0664   -0.8564 H   0  0  0  0  0  0  0  0  0  0  0  0
   -4.6107   -2.2435    0.2915 H   0  0  0  0  0  0  0  0  0  0  0  0
  1 10  2  0  0  0  0
  2  7  1  0  0  0  0
  2  8  1  0  0  0  0
  2 10  1  0  0  0  0
  3 13  1  0  0  0  0
  3 15  2  0  0  0  0
  4 15  1  0  0  0  0
  4 29  1  0  0  0  0
  4 30  1  0  0  0  0
  5  6  1  0  0  0  0
  5  7  1  0  0  0  0
  5  9  1  0  0  0  0
  5 16  1  6  0  0  0
  6  8  1  0  0  0  0
  6 17  1  0  0  0  0
  6 18  1  0  0  0  0
  7 19  1  0  0  0  0
  7 20  1  0  0  0  0
  8 21  1  0  0  0  0
  8 22  1  0  0  0  0
  9 23  1  0  0  0  0
  9 24  1  0  0  0  0
  9 25  1  0  0  0  0
 10 11  1  0  0  0  0
 11 12  1  0  0  0  0
 11 13  2  0  0  0  0
 12 14  2  0  0  0  0
 12 26  1  0  0  0  0
 13 27  1  0  0  0  0
 14 15  1  0  0  0  0
 14 28  1  0  0  0  0
M  END
>  <PUBCHEM_COMPOUND_CID>
62160659

>  <PUBCHEM_CONFORMER_RMSD>
0.6

>  <PUBCHEM_CONFORMER_DIVERSEORDER>
1
3
12
4
13
6
9
2
16
5
15
14
7
11
8
10

>  <PUBCHEM_MMFF94_PARTIAL_CHARGES>
17
1 -0.57
10 0.54
11 0.09
12 -0.15
13 0.16
14 -0.15
15 0.41
2 -0.66
26 0.15
27 0.15
28 0.15
29 0.4
3 -0.62
30 0.4
4 -0.9
7 0.3
8 0.3

>  <PUBCHEM_EFFECTIVE_ROTOR_COUNT>
3

>  <PUBCHEM_PHARMACOPHORE_FEATURES>
5
1 1 acceptor
1 4 donor
3 3 4 15 cation
5 2 5 6 7 8 rings
6 3 11 12 13 14 15 rings

>  <PUBCHEM_HEAVY_ATOM_COUNT>
15

>  <PUBCHEM_ATOM_DEF_STEREO_COUNT>
0

>  <PUBCHEM_ATOM_UDEF_STEREO_COUNT>
1

>  <PUBCHEM_BOND_DEF_STEREO_COUNT>
0

>  <PUBCHEM_BOND_UDEF_STEREO_COUNT>
0

>  <PUBCHEM_ISOTOPIC_ATOM_COUNT>
0

>  <PUBCHEM_COMPONENT_COUNT>
1

>  <PUBCHEM_CACTVS_TAUTO_COUNT>
4

>  <PUBCHEM_CONFORMER_ID>
03B47F1300000001

>  <PUBCHEM_MMFF94_ENERGY>
47.7444

>  <PUBCHEM_FEATURE_SELFOVERLAP>
25.372

>  <PUBCHEM_SHAPE_FINGERPRINT>
10465860 71 16877951533081416590
10618630 7 18340209600671534756
11137873 295 18337114466712475075
11543360 7 16515700947901094974
12032990 46 18410857646409011782
122479 349 9943513116264382430
12251169 10 13183019635539371523
12363563 72 18339648836920153934
13296908 3 18411418384464753702
14251717 144 18340487867017849707
14252887 29 18412546535050510842
14350558 41 18335426785172889140
15375462 189 17703785963565830302
15477762 27 18339923821894954901
16945 1 18267876153473986440
17834072 14 18337100177640942586
18186145 218 17895187753791627717
19141452 34 18338802325158343891
200 152 18201998828385657986
20201158 50 18334296487061299290
20279233 1 18259987097689282746
20281475 54 18410863148124915888
20361792 2 18130786750231418300
204376 136 17984130737562051928
20645476 183 14490465435236227539
20645477 70 18410008849102231615
20671657 53 18412268319785321776
20871998 22 18412546504822442920
20871999 31 17749115465003837605
21296965 67 18413388730792635921
21501502 16 18269001877883301328
21501925 9 18411976949694441850
22485316 2 18343300379296710775
23402539 116 17385990772131678556
23403322 49 18264208015470398214
23526113 38 18187646928957333928
23557571 272 17603578638585068012
23559900 14 18262791862105649962
2871803 45 18260828185219153770
33824 294 18339922718558111706
581208 293 18342175609245718480
7364860 26 18192714676802923956
77492 1 17132117973931930737
81228 2 18262802835320687528
83771 10 18413673517030687793
8809292 202 18191309273572427942
90316 7 14764630785383324651
9709674 26 18261114088307029778

>  <PUBCHEM_SHAPE_MULTIPOLES>
287.88
7.41
2.04
0.89
0.83
0.1
-0.03
-4.12
0.75
-1.26
-0.01
0.44
-0.05
0.58

>  <PUBCHEM_SHAPE_SELFOVERLAP>
605.194

>  <PUBCHEM_SHAPE_VOLUME>
163.4

>  <PUBCHEM_COORDINATE_TYPE>
2
5
10

$$$$
