62173314
 OpenBabel01182520543D

 32 32  0  0  0  0  0  0  0  0999 V2000
   -5.9075   -0.0118    0.4754 F   0  0  0  0  0  0  0  0  0  0  0  0
   -4.1100   -1.1114    1.0363 F   0  0  0  0  0  0  0  0  0  0  0  0
   -4.3323    0.9877    1.6040 F   0  0  0  0  0  0  0  0  0  0  0  0
   -1.9839   -1.5611   -1.1146 O   0  0  0  0  0  0  0  0  0  0  0  0
    3.8010    0.7068   -0.0362 N   0  0  0  0  0  0  0  0  0  0  0  0
   -2.4896    0.6285   -0.5426 N   0  0  0  0  0  0  0  0  0  0  0  0
    1.6253    1.4459   -0.5561 N   0  0  0  0  0  0  0  0  0  0  0  0
    4.7806   -0.2906    0.3215 C   0  0  0  0  0  0  0  0  0  0  0  0
    6.1543    0.3445    0.5092 C   0  0  0  0  0  0  0  0  0  0  0  0
    2.4550    0.4322   -0.2216 C   0  0  0  0  0  0  0  0  0  0  0  0
   -0.1860   -0.1552   -0.5766 C   0  0  0  0  0  0  0  0  0  0  0  0
    7.2167   -0.6606    0.9323 C   0  0  0  0  0  0  0  0  0  0  0  0
    2.0459   -0.8803   -0.0495 C   0  0  0  0  0  0  0  0  0  0  0  0
    0.6986   -1.1714   -0.2323 C   0  0  0  0  0  0  0  0  0  0  0  0
   -3.9240    0.5091   -0.6736 C   0  0  0  0  0  0  0  0  0  0  0  0
   -1.5989   -0.4273   -0.7743 C   0  0  0  0  0  0  0  0  0  0  0  0
    0.3229    1.1248   -0.7252 C   0  0  0  0  0  0  0  0  0  0  0  0
   -4.5681    0.0898    0.6238 C   0  0  0  0  0  0  0  0  0  0  0  0
    4.8494   -1.0552   -0.4618 H   0  0  0  0  0  0  0  0  0  0  0  0
    4.4990   -0.7795    1.2623 H   0  0  0  0  0  0  0  0  0  0  0  0
    6.0948    1.1378    1.2648 H   0  0  0  0  0  0  0  0  0  0  0  0
    6.4685    0.8269   -0.4246 H   0  0  0  0  0  0  0  0  0  0  0  0
    4.0928    1.6688   -0.1672 H   0  0  0  0  0  0  0  0  0  0  0  0
    2.7071   -1.6966    0.2166 H   0  0  0  0  0  0  0  0  0  0  0  0
    7.3300   -1.4483    0.1808 H   0  0  0  0  0  0  0  0  0  0  0  0
    8.1837   -0.1626    1.0528 H   0  0  0  0  0  0  0  0  0  0  0  0
    6.9534   -1.1295    1.8856 H   0  0  0  0  0  0  0  0  0  0  0  0
    0.3554   -2.1939   -0.0990 H   0  0  0  0  0  0  0  0  0  0  0  0
   -4.3049    1.4859   -0.9870 H   0  0  0  0  0  0  0  0  0  0  0  0
   -4.1543   -0.2169   -1.4599 H   0  0  0  0  0  0  0  0  0  0  0  0
   -2.1419    1.5204   -0.2068 H   0  0  0  0  0  0  0  0  0  0  0  0
   -0.2900    1.9703   -1.0194 H   0  0  0  0  0  0  0  0  0  0  0  0
  1 18  1  0  0  0  0
  2 18  1  0  0  0  0
  3 18  1  0  0  0  0
  4 16  2  0  0  0  0
  5  8  1  0  0  0  0
  5 10  1  0  0  0  0
  5 23  1  0  0  0  0
  6 15  1  0  0  0  0
  6 16  1  0  0  0  0
  6 31  1  0  0  0  0
  7 10  2  0  0  0  0
  7 17  1  0  0  0  0
  8  9  1  0  0  0  0
  8 19  1  0  0  0  0
  8 20  1  0  0  0  0
  9 12  1  0  0  0  0
  9 21  1  0  0  0  0
  9 22  1  0  0  0  0
 10 13  1  0  0  0  0
 11 14  1  0  0  0  0
 11 16  1  0  0  0  0
 11 17  2  0  0  0  0
 12 25  1  0  0  0  0
 12 26  1  0  0  0  0
 12 27  1  0  0  0  0
 13 14  2  0  0  0  0
 13 24  1  0  0  0  0
 14 28  1  0  0  0  0
 15 18  1  0  0  0  0
 15 29  1  0  0  0  0
 15 30  1  0  0  0  0
 17 32  1  0  0  0  0
M  END
>  <PUBCHEM_COMPOUND_CID>
62173314

>  <PUBCHEM_CONFORMER_RMSD>
0.8

>  <PUBCHEM_CONFORMER_DIVERSEORDER>
1
32
25
41
24
14
34
28
31
17
29
12
27
26
33
16
38
18
21
5
9
15
30
36
37
13
40
35
22
3
19
23
2
10
39
6
7
20
11
4
8

>  <PUBCHEM_MMFF94_PARTIAL_CHARGES>
21
1 -0.34
10 0.41
11 0.09
13 -0.15
14 -0.15
15 0.3
16 0.54
17 0.16
18 1.02
2 -0.34
23 0.4
24 0.15
28 0.15
3 -0.34
31 0.37
32 0.15
4 -0.57
5 -0.87
6 -0.73
7 -0.62
8 0.37

>  <PUBCHEM_EFFECTIVE_ROTOR_COUNT>
7

>  <PUBCHEM_PHARMACOPHORE_FEATURES>
6
1 12 hydrophobe
1 4 acceptor
1 5 donor
1 6 donor
3 5 7 10 cation
6 7 10 11 13 14 17 rings

>  <PUBCHEM_HEAVY_ATOM_COUNT>
18

>  <PUBCHEM_ATOM_DEF_STEREO_COUNT>
0

>  <PUBCHEM_ATOM_UDEF_STEREO_COUNT>
0

>  <PUBCHEM_BOND_DEF_STEREO_COUNT>
0

>  <PUBCHEM_BOND_UDEF_STEREO_COUNT>
0

>  <PUBCHEM_ISOTOPIC_ATOM_COUNT>
0

>  <PUBCHEM_COMPONENT_COUNT>
1

>  <PUBCHEM_CACTVS_TAUTO_COUNT>
7

>  <PUBCHEM_CONFORMER_ID>
03B4B08200000001

>  <PUBCHEM_MMFF94_ENERGY>
37.6723

>  <PUBCHEM_FEATURE_SELFOVERLAP>
30.446

>  <PUBCHEM_SHAPE_FINGERPRINT>
10087517 78 16200153170739049088
106641 1 18272089435430458235
11089746 13 17418085533800168944
11401426 45 11743838075602336484
117890 112 16272207496876335768
12251169 10 18409171030316766455
12596602 18 18411136978270992992
12616971 3 18334572482266278628
12714333 28 13183020726793302488
13288520 33 14851605475265845159
13533116 47 16558754460960786870
13675066 3 18334009501720753740
13760787 5 18041554841003285844
13862211 1 18260542338334734758
1420 363 16153427246979458850
14251718 22 7853574617265499578
14251764 18 18341890835908184860
14350574 20 15357697492124022660
15048467 5 16917345940105070394
15501527 24 8934998174889358984
15716309 27 17095241423720706250
17834072 33 11458425734978677234
17834076 25 16917347039395126022
17844677 252 17240485801553733308
18222031 100 11458422453734381278
18769570 83 16559034874294143874
19141452 34 18201995556364721806
19489759 90 16128370488856850982
200 152 8214146244080012095
20281389 69 16773795887999677080
20645477 56 17418091022610007276
21150785 3 8934993776932453930
21267235 1 18187362087907846138
21637258 2 15430309252880897320
22224240 67 18412821399851422307
23035841 295 13406793324287685737
23402539 116 13334731319281408742
23402655 69 9799425394794729571
23536379 177 15769776840837945950
23557571 272 14924216101840442703
23559900 14 8213843882983582278
25147074 1 18267021854513976022
26918003 58 18113339717460770537
2916195 48 16702299052986022704
29717793 49 11097850762294912330
300161 21 14979954770643345950
33382 64 15792004542251534072
4463277 17 18260264153688120724
465052 167 17458063755738963394
5104073 3 18268984461864457778
7062679 117 12468359041990038192
7495541 125 16153434969346611524

>  <PUBCHEM_SHAPE_MULTIPOLES>
327.8
14.84
1.22
1.04
11.26
0.02
-0.18
1.27
-6.74
-0.02
0.14
-0.94
0.05
-0.31

>  <PUBCHEM_SHAPE_SELFOVERLAP>
669.07

>  <PUBCHEM_SHAPE_VOLUME>
190.5

>  <PUBCHEM_COORDINATE_TYPE>
2
5
10

$$$$
