62172198
 OpenBabel01182520543D

 26 26  0  0  0  0  0  0  0  0999 V2000
    1.4717   -1.4725    1.1642 O   0  0  0  0  0  0  0  0  0  0  0  0
    1.8430   -0.2340   -0.7608 N   0  0  0  0  0  0  0  0  0  0  0  0
   -0.1659    1.7783    0.1888 N   0  0  0  0  0  0  0  0  0  0  0  0
   -2.3318    0.8526   -0.0802 N   0  0  0  0  0  0  0  0  0  0  0  0
   -0.4137   -0.6117    0.0676 C   0  0  0  0  0  0  0  0  0  0  0  0
   -1.0030    0.6423    0.0531 C   0  0  0  0  0  0  0  0  0  0  0  0
    3.2829   -0.3586   -0.7652 C   0  0  0  0  0  0  0  0  0  0  0  0
    1.0219   -0.8066    0.2162 C   0  0  0  0  0  0  0  0  0  0  0  0
   -1.2415   -1.7213   -0.0632 C   0  0  0  0  0  0  0  0  0  0  0  0
    3.9267    0.6147    0.2005 C   0  0  0  0  0  0  0  0  0  0  0  0
   -2.6138   -1.5454   -0.2026 C   0  0  0  0  0  0  0  0  0  0  0  0
   -3.1046   -0.2496   -0.2048 C   0  0  0  0  0  0  0  0  0  0  0  0
   -0.6720    3.1118    0.1864 C   0  0  0  0  0  0  0  0  0  0  0  0
    3.5488   -1.3865   -0.4975 H   0  0  0  0  0  0  0  0  0  0  0  0
    3.6266   -0.1664   -1.7863 H   0  0  0  0  0  0  0  0  0  0  0  0
    1.4134    0.2954   -1.5141 H   0  0  0  0  0  0  0  0  0  0  0  0
   -0.8310   -2.7276   -0.0595 H   0  0  0  0  0  0  0  0  0  0  0  0
    0.7603    1.6292    0.5739 H   0  0  0  0  0  0  0  0  0  0  0  0
    3.6608    1.6473   -0.0499 H   0  0  0  0  0  0  0  0  0  0  0  0
    3.6019    0.4292    1.2295 H   0  0  0  0  0  0  0  0  0  0  0  0
    5.0165    0.5230    0.1652 H   0  0  0  0  0  0  0  0  0  0  0  0
   -3.2781   -2.3956   -0.3063 H   0  0  0  0  0  0  0  0  0  0  0  0
   -4.1674   -0.0586   -0.3106 H   0  0  0  0  0  0  0  0  0  0  0  0
   -1.1840    3.3405   -0.7540 H   0  0  0  0  0  0  0  0  0  0  0  0
    0.1524    3.8234    0.2954 H   0  0  0  0  0  0  0  0  0  0  0  0
   -1.3653    3.2754    1.0178 H   0  0  0  0  0  0  0  0  0  0  0  0
  1  8  2  0  0  0  0
  2  7  1  0  0  0  0
  2  8  1  0  0  0  0
  2 16  1  0  0  0  0
  3  6  1  0  0  0  0
  3 13  1  0  0  0  0
  3 18  1  0  0  0  0
  4  6  1  0  0  0  0
  4 12  2  0  0  0  0
  5  6  2  0  0  0  0
  5  8  1  0  0  0  0
  5  9  1  0  0  0  0
  7 10  1  0  0  0  0
  7 14  1  0  0  0  0
  7 15  1  0  0  0  0
  9 11  2  0  0  0  0
  9 17  1  0  0  0  0
 10 19  1  0  0  0  0
 10 20  1  0  0  0  0
 10 21  1  0  0  0  0
 11 12  1  0  0  0  0
 11 22  1  0  0  0  0
 12 23  1  0  0  0  0
 13 24  1  0  0  0  0
 13 25  1  0  0  0  0
 13 26  1  0  0  0  0
M  END
>  <PUBCHEM_COMPOUND_CID>
62172198

>  <PUBCHEM_CONFORMER_RMSD>
0.6

>  <PUBCHEM_CONFORMER_DIVERSEORDER>
2
10
11
4
14
9
15
12
13
1
5
8
7
3
6

>  <PUBCHEM_MMFF94_PARTIAL_CHARGES>
17
1 -0.57
11 -0.15
12 0.16
13 0.37
16 0.37
17 0.15
18 0.4
2 -0.73
22 0.15
23 0.15
3 -0.87
4 -0.62
5 0.09
6 0.41
7 0.3
8 0.54
9 -0.15

>  <PUBCHEM_EFFECTIVE_ROTOR_COUNT>
4

>  <PUBCHEM_PHARMACOPHORE_FEATURES>
6
1 1 acceptor
1 2 donor
1 3 cation
1 3 donor
1 4 acceptor
6 4 5 6 9 11 12 rings

>  <PUBCHEM_HEAVY_ATOM_COUNT>
13

>  <PUBCHEM_ATOM_DEF_STEREO_COUNT>
0

>  <PUBCHEM_ATOM_UDEF_STEREO_COUNT>
0

>  <PUBCHEM_BOND_DEF_STEREO_COUNT>
0

>  <PUBCHEM_BOND_UDEF_STEREO_COUNT>
0

>  <PUBCHEM_ISOTOPIC_ATOM_COUNT>
0

>  <PUBCHEM_COMPONENT_COUNT>
1

>  <PUBCHEM_CACTVS_TAUTO_COUNT>
7

>  <PUBCHEM_CONFORMER_ID>
03B4AC2600000002

>  <PUBCHEM_MMFF94_ENERGY>
38.1413

>  <PUBCHEM_FEATURE_SELFOVERLAP>
30.447

>  <PUBCHEM_SHAPE_FINGERPRINT>
108231 29 18117851111942262586
11132069 177 18413387657124547992
12897270 3 18341898476264932694
14614273 12 18115019706270636285
14993402 34 18342171181219105375
15490181 8 17546440086122557653
16945 1 18340199679223351411
17134986 127 17401777319502223428
193761 8 17690846657701794191
20510252 161 18270965635177158353
20645477 70 17764858492368090895
21524375 3 17613730210390402640
22213442 358 18198904910081658807
22802520 49 17915197727372286446
228727 97 18260839193404624906
23402539 116 18343011220839954646
23552423 10 18047748484391718207
23557571 272 18130238128705342110
23559900 14 18342457011619623718
2748010 2 18268418208690957497
353137 74 18335421227327088756
53812653 8 18265900142337552265
7364860 26 17840023279989192785
81228 2 18267885924609013328

>  <PUBCHEM_SHAPE_MULTIPOLES>
246.72
5.19
2.39
0.78
3.82
2.15
0.04
-0.86
-0.65
-1
0.27
0.33
-0.17
-0.09

>  <PUBCHEM_SHAPE_SELFOVERLAP>
501.148

>  <PUBCHEM_SHAPE_VOLUME>
143.3

>  <PUBCHEM_COORDINATE_TYPE>
2
5
10

$$$$
