62181091
 OpenBabel01182520543D

 29 29  0  0  0  0  0  0  0  0999 V2000
    3.5128   -1.5751   -0.7422 F   0  0  0  0  0  0  0  0  0  0  0  0
    5.0301   -0.2683    0.1203 F   0  0  0  0  0  0  0  0  0  0  0  0
    3.2602   -0.7901    1.2820 F   0  0  0  0  0  0  0  0  0  0  0  0
    1.0081    1.2955    1.5149 O   0  0  0  0  0  0  0  0  0  0  0  0
    1.5521    0.5044   -0.6164 N   0  0  0  0  0  0  0  0  0  0  0  0
   -2.6190   -0.9740    0.4595 N   0  0  0  0  0  0  0  0  0  0  0  0
   -4.7888   -0.2825   -0.2409 N   0  0  0  0  0  0  0  0  0  0  0  0
    2.9942    0.7191   -0.5166 C   0  0  0  0  0  0  0  0  0  0  0  0
    0.6781    0.8193    0.4294 C   0  0  0  0  0  0  0  0  0  0  0  0
   -0.7574    0.5534    0.2443 C   0  0  0  0  0  0  0  0  0  0  0  0
    1.0841   -0.0583   -1.8753 C   0  0  0  0  0  0  0  0  0  0  0  0
    3.6996   -0.4915    0.0409 C   0  0  0  0  0  0  0  0  0  0  0  0
   -1.6013    1.5175   -0.2957 C   0  0  0  0  0  0  0  0  0  0  0  0
   -1.3105   -0.6653    0.6026 C   0  0  0  0  0  0  0  0  0  0  0  0
   -3.4085   -0.0121   -0.0688 C   0  0  0  0  0  0  0  0  0  0  0  0
   -2.9535    1.2373   -0.4586 C   0  0  0  0  0  0  0  0  0  0  0  0
   -5.3802   -1.5294    0.1206 C   0  0  0  0  0  0  0  0  0  0  0  0
    3.3895    0.9847   -1.5028 H   0  0  0  0  0  0  0  0  0  0  0  0
    3.1712    1.5702    0.1503 H   0  0  0  0  0  0  0  0  0  0  0  0
    1.3685    0.6216   -2.6847 H   0  0  0  0  0  0  0  0  0  0  0  0
    0.0065   -0.2103   -1.9273 H   0  0  0  0  0  0  0  0  0  0  0  0
    1.5689   -1.0250   -2.0360 H   0  0  0  0  0  0  0  0  0  0  0  0
   -1.2149    2.4888   -0.5924 H   0  0  0  0  0  0  0  0  0  0  0  0
   -0.7018   -1.4571    1.0287 H   0  0  0  0  0  0  0  0  0  0  0  0
   -3.6171    1.9860   -0.8790 H   0  0  0  0  0  0  0  0  0  0  0  0
   -5.3124    0.3477   -0.8389 H   0  0  0  0  0  0  0  0  0  0  0  0
   -5.2606   -1.7299    1.1903 H   0  0  0  0  0  0  0  0  0  0  0  0
   -4.9412   -2.3564   -0.4470 H   0  0  0  0  0  0  0  0  0  0  0  0
   -6.4531   -1.5098   -0.0949 H   0  0  0  0  0  0  0  0  0  0  0  0
  1 12  1  0  0  0  0
  2 12  1  0  0  0  0
  3 12  1  0  0  0  0
  4  9  2  0  0  0  0
  5  8  1  0  0  0  0
  5  9  1  0  0  0  0
  5 11  1  0  0  0  0
  6 14  1  0  0  0  0
  6 15  2  0  0  0  0
  7 15  1  0  0  0  0
  7 17  1  0  0  0  0
  7 26  1  0  0  0  0
  8 12  1  0  0  0  0
  8 18  1  0  0  0  0
  8 19  1  0  0  0  0
  9 10  1  0  0  0  0
 10 13  1  0  0  0  0
 10 14  2  0  0  0  0
 11 20  1  0  0  0  0
 11 21  1  0  0  0  0
 11 22  1  0  0  0  0
 13 16  2  0  0  0  0
 13 23  1  0  0  0  0
 14 24  1  0  0  0  0
 15 16  1  0  0  0  0
 16 25  1  0  0  0  0
 17 27  1  0  0  0  0
 17 28  1  0  0  0  0
 17 29  1  0  0  0  0
M  END
>  <PUBCHEM_COMPOUND_CID>
62181091

>  <PUBCHEM_CONFORMER_RMSD>
0.6

>  <PUBCHEM_CONFORMER_DIVERSEORDER>
1
18
29
43
42
17
50
49
41
26
25
30
20
15
39
48
44
16
22
40
45
34
23
19
47
7
14
27
24
12
37
33
10
36
28
11
32
21
6
4
13
5
31
46
35
38
9
2
8
3

>  <PUBCHEM_MMFF94_PARTIAL_CHARGES>
21
1 -0.34
10 0.09
11 0.3
12 1.02
13 -0.15
14 0.16
15 0.41
16 -0.15
17 0.37
2 -0.34
23 0.15
24 0.15
25 0.15
26 0.4
3 -0.34
4 -0.57
5 -0.66
6 -0.62
7 -0.87
8 0.3
9 0.54

>  <PUBCHEM_EFFECTIVE_ROTOR_COUNT>
5

>  <PUBCHEM_PHARMACOPHORE_FEATURES>
4
1 4 acceptor
1 7 donor
3 6 7 15 cation
6 6 10 13 14 15 16 rings

>  <PUBCHEM_HEAVY_ATOM_COUNT>
17

>  <PUBCHEM_ATOM_DEF_STEREO_COUNT>
0

>  <PUBCHEM_ATOM_UDEF_STEREO_COUNT>
0

>  <PUBCHEM_BOND_DEF_STEREO_COUNT>
0

>  <PUBCHEM_BOND_UDEF_STEREO_COUNT>
0

>  <PUBCHEM_ISOTOPIC_ATOM_COUNT>
0

>  <PUBCHEM_COMPONENT_COUNT>
1

>  <PUBCHEM_CACTVS_TAUTO_COUNT>
4

>  <PUBCHEM_CONFORMER_ID>
03B4CEE300000001

>  <PUBCHEM_MMFF94_ENERGY>
51.6821

>  <PUBCHEM_FEATURE_SELFOVERLAP>
20.297

>  <PUBCHEM_SHAPE_FINGERPRINT>
10465860 250 18271801294374457800
11471102 20 13623526853221206220
11796584 16 18407758127784390355
12032990 46 18336547218119081321
12236239 1 17240198828707406345
13288520 33 18408323267870036645
13675066 3 14692582022109211053
13690532 89 18113336423057194237
14115302 16 17822300127538525479
14252887 29 16773807982253029604
14911166 2 14851607686884034156
14993402 34 16370723738303110989
15207287 21 18131073740062253143
17834072 33 18186805811531769380
18186145 218 15068628222511897172
19862831 5 16226048907319517505
200 152 18411136930820474157
20281475 54 18272098179435175025
20374829 77 18408600379608406327
20645476 183 16371004144218210851
20645477 70 18335142007440284718
21119208 17 16805322210503896637
231179 274 10809342234906648404
23402539 116 18334571326688240173
23402655 69 13479400687572834775
23557571 272 18412266095145574773
23559900 14 18262235637602061408
26918003 58 16845574236244021915
3060560 45 15502369058394407730
3286 77 18060419153258473649
4047638 21 9799698107795381372
465052 167 18131356348831182695
4990 188 15068343410319015931
7364860 26 18263084486375116028
7495541 125 18271243927672799329
76465 3 18272642489621058543
81228 2 17415303644823096088
9709674 26 18334865991203788698

>  <PUBCHEM_SHAPE_MULTIPOLES>
307.22
9.56
1.41
1.12
2.24
0.02
-0.15
4.44
-0.38
0.62
0.03
-0.73
-0.07
0.19

>  <PUBCHEM_SHAPE_SELFOVERLAP>
633.43

>  <PUBCHEM_SHAPE_VOLUME>
177.9

>  <PUBCHEM_COORDINATE_TYPE>
2
5
10

$$$$
