62181340
 OpenBabel01182520543D

 32 32  0  0  0  0  0  0  0  0999 V2000
    5.0413   -0.1897    0.0457 F   0  0  0  0  0  0  0  0  0  0  0  0
    3.3634   -1.5576   -0.2156 F   0  0  0  0  0  0  0  0  0  0  0  0
    3.6268    0.1273   -1.5830 F   0  0  0  0  0  0  0  0  0  0  0  0
    0.9352   -1.2516    1.6514 O   0  0  0  0  0  0  0  0  0  0  0  0
    1.4858    0.5495    0.2670 N   0  0  0  0  0  0  0  0  0  0  0  0
   -3.0423    0.4314    0.7394 N   0  0  0  0  0  0  0  0  0  0  0  0
   -4.7814   -0.3011   -0.7153 N   0  0  0  0  0  0  0  0  0  0  0  0
    2.9041    0.6065    0.6149 C   0  0  0  0  0  0  0  0  0  0  0  0
    1.0346    1.5374   -0.7030 C   0  0  0  0  0  0  0  0  0  0  0  0
    0.6183   -0.3928    0.8292 C   0  0  0  0  0  0  0  0  0  0  0  0
   -0.7911   -0.3847    0.4061 C   0  0  0  0  0  0  0  0  0  0  0  0
    3.7356   -0.2622   -0.2950 C   0  0  0  0  0  0  0  0  0  0  0  0
    0.5695    2.8090   -0.0241 C   0  0  0  0  0  0  0  0  0  0  0  0
   -1.2187   -1.1432   -0.6780 C   0  0  0  0  0  0  0  0  0  0  0  0
   -1.7338    0.3789    1.0755 C   0  0  0  0  0  0  0  0  0  0  0  0
   -2.5571   -1.1152   -1.0543 C   0  0  0  0  0  0  0  0  0  0  0  0
   -3.4208   -0.3190   -0.3196 C   0  0  0  0  0  0  0  0  0  0  0  0
   -5.7692    0.4770   -0.0415 C   0  0  0  0  0  0  0  0  0  0  0  0
    3.2470    1.6460    0.5864 H   0  0  0  0  0  0  0  0  0  0  0  0
    3.0203    0.2511    1.6448 H   0  0  0  0  0  0  0  0  0  0  0  0
    1.8553    1.7662   -1.3917 H   0  0  0  0  0  0  0  0  0  0  0  0
    0.2258    1.1378   -1.3201 H   0  0  0  0  0  0  0  0  0  0  0  0
   -0.2511    2.6376    0.6746 H   0  0  0  0  0  0  0  0  0  0  0  0
    1.3850    3.2730    0.5406 H   0  0  0  0  0  0  0  0  0  0  0  0
    0.2283    3.5320   -0.7720 H   0  0  0  0  0  0  0  0  0  0  0  0
   -0.5171   -1.7580   -1.2354 H   0  0  0  0  0  0  0  0  0  0  0  0
   -1.4641    0.9823    1.9367 H   0  0  0  0  0  0  0  0  0  0  0  0
   -2.8965   -1.7042   -1.9000 H   0  0  0  0  0  0  0  0  0  0  0  0
   -5.0880   -1.0303   -1.3501 H   0  0  0  0  0  0  0  0  0  0  0  0
   -5.5273    1.5442   -0.0792 H   0  0  0  0  0  0  0  0  0  0  0  0
   -5.8686    0.1722    1.0054 H   0  0  0  0  0  0  0  0  0  0  0  0
   -6.7431    0.3408   -0.5221 H   0  0  0  0  0  0  0  0  0  0  0  0
  1 12  1  0  0  0  0
  2 12  1  0  0  0  0
  3 12  1  0  0  0  0
  4 10  2  0  0  0  0
  5  8  1  0  0  0  0
  5  9  1  0  0  0  0
  5 10  1  0  0  0  0
  6 15  1  0  0  0  0
  6 17  2  0  0  0  0
  7 17  1  0  0  0  0
  7 18  1  0  0  0  0
  7 29  1  0  0  0  0
  8 12  1  0  0  0  0
  8 19  1  0  0  0  0
  8 20  1  0  0  0  0
  9 13  1  0  0  0  0
  9 21  1  0  0  0  0
  9 22  1  0  0  0  0
 10 11  1  0  0  0  0
 11 14  1  0  0  0  0
 11 15  2  0  0  0  0
 13 23  1  0  0  0  0
 13 24  1  0  0  0  0
 13 25  1  0  0  0  0
 14 16  2  0  0  0  0
 14 26  1  0  0  0  0
 15 27  1  0  0  0  0
 16 17  1  0  0  0  0
 16 28  1  0  0  0  0
 18 30  1  0  0  0  0
 18 31  1  0  0  0  0
 18 32  1  0  0  0  0
M  END
>  <PUBCHEM_COMPOUND_CID>
62181340

>  <PUBCHEM_CONFORMER_RMSD>
0.8

>  <PUBCHEM_CONFORMER_DIVERSEORDER>
1
17
30
24
26
19
15
5
13
4
23
29
9
18
28
16
22
6
12
31
33
35
11
3
7
32
8
34
21
2
27
10
14
20
25

>  <PUBCHEM_MMFF94_PARTIAL_CHARGES>
21
1 -0.34
10 0.54
11 0.09
12 1.02
14 -0.15
15 0.16
16 -0.15
17 0.41
18 0.37
2 -0.34
26 0.15
27 0.15
28 0.15
29 0.4
3 -0.34
4 -0.57
5 -0.66
6 -0.62
7 -0.87
8 0.3
9 0.3

>  <PUBCHEM_EFFECTIVE_ROTOR_COUNT>
6

>  <PUBCHEM_PHARMACOPHORE_FEATURES>
4
1 4 acceptor
1 7 donor
3 6 7 17 cation
6 6 11 14 15 16 17 rings

>  <PUBCHEM_HEAVY_ATOM_COUNT>
18

>  <PUBCHEM_ATOM_DEF_STEREO_COUNT>
0

>  <PUBCHEM_ATOM_UDEF_STEREO_COUNT>
0

>  <PUBCHEM_BOND_DEF_STEREO_COUNT>
0

>  <PUBCHEM_BOND_UDEF_STEREO_COUNT>
0

>  <PUBCHEM_ISOTOPIC_ATOM_COUNT>
0

>  <PUBCHEM_COMPONENT_COUNT>
1

>  <PUBCHEM_CACTVS_TAUTO_COUNT>
4

>  <PUBCHEM_CONFORMER_ID>
03B4CFDC00000001

>  <PUBCHEM_MMFF94_ENERGY>
50.4778

>  <PUBCHEM_FEATURE_SELFOVERLAP>
20.297

>  <PUBCHEM_SHAPE_FINGERPRINT>
10354089 29 18260547814824199585
10366900 7 17240477031704930201
104564 63 18115582634802527181
11031198 65 17312812775681873051
11796584 16 16988843886782389151
12236239 1 18341891892032465227
12815109 37 15482670186628075607
14115302 16 17632296826014467183
14341114 328 11458427942037797847
14787075 74 10953753209006445255
14911166 2 18187083970371630128
14993402 34 18412262835233332643
15848700 24 18410570687054788068
16945 1 17676759942032810888
17834072 8 18202563973526284301
18186145 218 18115573972280141687
19784866 140 18041558023273741770
19862831 5 18409727382936748155
200 152 12463570677873453443
20645476 183 18341042004437176511
21119208 17 18343299284306773639
23402539 116 16559028273198687889
23558518 356 17536593267679483314
23559900 14 17131542951110186600
25 1 17748820826057989627
3060560 45 18411129247113848015
347723 3 18335136479759196706
4990 188 18260550030289014703
633830 44 18113895022061051799
7364860 26 17986668384117387184
74978 22 18265336290208812207
9971528 1 18341888623610215400
9981440 41 17332795557682585192

>  <PUBCHEM_SHAPE_MULTIPOLES>
327.8
9.32
1.65
1.15
4.21
1.06
-0.07
-0.81
1.76
-0.62
0.18
-0.2
-0.17
-0.44

>  <PUBCHEM_SHAPE_SELFOVERLAP>
672.462

>  <PUBCHEM_SHAPE_VOLUME>
190.8

>  <PUBCHEM_COORDINATE_TYPE>
2
5
10

$$$$
