62415572
 OpenBabel01182520543D

 27 28  0  0  0  0  0  0  0  0999 V2000
   -1.7755   -2.3712   -0.9873 O   0  0  0  0  0  0  0  0  0  0  0  0
    0.8728   -0.3542   -0.3395 N   0  0  0  0  0  0  0  0  0  0  0  0
   -0.1696    1.7564   -0.2204 N   0  0  0  0  0  0  0  0  0  0  0  0
   -1.4526   -2.3298    1.2826 N   0  0  0  0  0  0  0  0  0  0  0  0
    2.2068    0.1280   -0.5440 C   0  0  0  0  0  0  0  0  0  0  0  0
    2.8064    0.7731    0.7229 C   0  0  0  0  0  0  0  0  0  0  0  0
    3.2694   -0.9799   -0.3900 C   0  0  0  0  0  0  0  0  0  0  0  0
    4.1253    0.0534    0.3719 C   0  0  0  0  0  0  0  0  0  0  0  0
   -0.2913    0.4105   -0.1818 C   0  0  0  0  0  0  0  0  0  0  0  0
   -1.4921   -0.2547    0.0062 C   0  0  0  0  0  0  0  0  0  0  0  0
   -2.6422    0.5106    0.1647 C   0  0  0  0  0  0  0  0  0  0  0  0
   -1.5910   -1.7072    0.0465 C   0  0  0  0  0  0  0  0  0  0  0  0
   -1.3089    2.4670   -0.0627 C   0  0  0  0  0  0  0  0  0  0  0  0
   -2.5574    1.8981    0.1309 C   0  0  0  0  0  0  0  0  0  0  0  0
    2.3119    0.7201   -1.4602 H   0  0  0  0  0  0  0  0  0  0  0  0
    2.3682    0.4388    1.6713 H   0  0  0  0  0  0  0  0  0  0  0  0
    2.8559    1.8653    0.7218 H   0  0  0  0  0  0  0  0  0  0  0  0
    3.7042   -1.3527   -1.3213 H   0  0  0  0  0  0  0  0  0  0  0  0
    2.9676   -1.8347    0.2275 H   0  0  0  0  0  0  0  0  0  0  0  0
    4.7896    0.6389   -0.2740 H   0  0  0  0  0  0  0  0  0  0  0  0
    4.6975   -0.3331    1.2187 H   0  0  0  0  0  0  0  0  0  0  0  0
    0.7160   -1.3030   -0.6676 H   0  0  0  0  0  0  0  0  0  0  0  0
   -3.6092    0.0380    0.3154 H   0  0  0  0  0  0  0  0  0  0  0  0
   -1.1890    3.5448   -0.0969 H   0  0  0  0  0  0  0  0  0  0  0  0
   -3.4405    2.5147    0.2523 H   0  0  0  0  0  0  0  0  0  0  0  0
   -1.2934   -1.8041    2.1362 H   0  0  0  0  0  0  0  0  0  0  0  0
   -1.5064   -3.3393    1.3673 H   0  0  0  0  0  0  0  0  0  0  0  0
  1 12  2  0  0  0  0
  2  5  1  0  0  0  0
  2  9  1  0  0  0  0
  2 22  1  0  0  0  0
  3  9  1  0  0  0  0
  3 13  2  0  0  0  0
  4 12  1  0  0  0  0
  4 26  1  0  0  0  0
  4 27  1  0  0  0  0
  5  6  1  0  0  0  0
  5  7  1  0  0  0  0
  5 15  1  0  0  0  0
  6  8  1  0  0  0  0
  6 16  1  0  0  0  0
  6 17  1  0  0  0  0
  7  8  1  0  0  0  0
  7 18  1  0  0  0  0
  7 19  1  0  0  0  0
  8 20  1  0  0  0  0
  8 21  1  0  0  0  0
  9 10  2  0  0  0  0
 10 11  1  0  0  0  0
 10 12  1  0  0  0  0
 11 14  2  0  0  0  0
 11 23  1  0  0  0  0
 13 14  1  0  0  0  0
 13 24  1  0  0  0  0
 14 25  1  0  0  0  0
M  END
>  <PUBCHEM_COMPOUND_CID>
62415572

>  <PUBCHEM_CONFORMER_RMSD>
0.6

>  <PUBCHEM_CONFORMER_DIVERSEORDER>
1
22
8
13
19
20
14
27
28
21
9
25
30
6
29
7
15
24
10
17
26
23
2
18
16
5
11
3
12
4

>  <PUBCHEM_MMFF94_PARTIAL_CHARGES>
17
1 -0.57
10 0.09
11 -0.15
12 0.54
13 0.16
14 -0.15
2 -0.75
22 0.4
23 0.15
24 0.15
25 0.15
26 0.37
27 0.37
3 -0.62
4 -0.8
5 0.25
9 0.41

>  <PUBCHEM_EFFECTIVE_ROTOR_COUNT>
3.8

>  <PUBCHEM_PHARMACOPHORE_FEATURES>
7
1 1 acceptor
1 2 cation
1 2 donor
1 3 acceptor
1 4 donor
4 5 6 7 8 rings
6 3 9 10 11 13 14 rings

>  <PUBCHEM_HEAVY_ATOM_COUNT>
14

>  <PUBCHEM_ATOM_DEF_STEREO_COUNT>
0

>  <PUBCHEM_ATOM_UDEF_STEREO_COUNT>
0

>  <PUBCHEM_BOND_DEF_STEREO_COUNT>
0

>  <PUBCHEM_BOND_UDEF_STEREO_COUNT>
0

>  <PUBCHEM_ISOTOPIC_ATOM_COUNT>
0

>  <PUBCHEM_COMPONENT_COUNT>
1

>  <PUBCHEM_CACTVS_TAUTO_COUNT>
7

>  <PUBCHEM_CONFORMER_ID>
03B862D400000001

>  <PUBCHEM_MMFF94_ENERGY>
50.9931

>  <PUBCHEM_FEATURE_SELFOVERLAP>
35.521

>  <PUBCHEM_SHAPE_FINGERPRINT>
10608611 8 18343860005304453024
12500047 106 18339356358347799292
12553582 1 17978803633146780286
12716758 59 18411136892271302648
13024252 1 14273460258211324765
13380535 76 18269271266315450582
14965852 173 18409446982060453666
15669948 3 18409168813965935510
16945 1 18410863152499277437
20510252 161 18271527477071566233
20524608 308 18342457010733445847
20528008 55 18342732992536805028
20645476 183 17532677687708229974
20871998 184 18342464759086588991
21501502 16 18339081626259078036
21524375 3 18122063100686205909
23388829 49 17622719143038347173
23402539 116 18271514343525272597
23419403 2 16842449518750362875
23557571 272 18271816760804852724
23559900 14 18271243804083994822
257057 1 17909539894012615935
2748010 2 18196087974181512261
305870 269 17830172411428426537
3071541 236 18261106353207741905
43471831 8 18044658603172387019
5706482 22 18265608789015045809
6333449 129 18341328911893063869
6338986 31 17982723379288421735
69090 78 18271239430941974861
7364860 26 17331962720831978309
75552 356 18409167718554232516
81228 2 18408603690553496457
8809292 202 18339928121626768586
9709674 26 18343022155853245910

>  <PUBCHEM_SHAPE_MULTIPOLES>
267.3
5.6
2.52
0.84
5.96
0.57
-0.09
-0.47
-0.46
-2.43
-0.09
0.02
0.31
0.24

>  <PUBCHEM_SHAPE_SELFOVERLAP>
562.231

>  <PUBCHEM_SHAPE_VOLUME>
150.6

>  <PUBCHEM_COORDINATE_TYPE>
2
5
10

$$$$
