63227522
 OpenBabel01182520543D

 29 29  0  0  0  0  0  0  0  0999 V2000
   -2.6012   -1.4047    0.3944 F   0  0  0  0  0  0  0  0  0  0  0  0
   -4.6315   -1.1935    1.1720 F   0  0  0  0  0  0  0  0  0  0  0  0
   -4.2778   -1.1876   -0.9794 F   0  0  0  0  0  0  0  0  0  0  0  0
   -0.4903    2.3308    0.6399 O   0  0  0  0  0  0  0  0  0  0  0  0
   -1.3665    0.6969   -0.7546 N   0  0  0  0  0  0  0  0  0  0  0  0
    3.3638    0.7580    0.1881 N   0  0  0  0  0  0  0  0  0  0  0  0
    4.6838   -1.2117   -0.0452 N   0  0  0  0  0  0  0  0  0  0  0  0
   -2.6882    1.2501   -0.8586 C   0  0  0  0  0  0  0  0  0  0  0  0
   -3.6267    0.7299    0.2240 C   0  0  0  0  0  0  0  0  0  0  0  0
   -3.7813   -0.7776    0.2094 C   0  0  0  0  0  0  0  0  0  0  0  0
    0.9595    0.6094   -0.0180 C   0  0  0  0  0  0  0  0  0  0  0  0
   -0.3598    1.2918   -0.0020 C   0  0  0  0  0  0  0  0  0  0  0  0
    1.0561   -0.7596   -0.2420 C   0  0  0  0  0  0  0  0  0  0  0  0
    2.1326    1.3168    0.1898 C   0  0  0  0  0  0  0  0  0  0  0  0
    3.4181   -0.5745   -0.0329 C   0  0  0  0  0  0  0  0  0  0  0  0
    2.3052   -1.3706   -0.2510 C   0  0  0  0  0  0  0  0  0  0  0  0
    5.9043   -0.5041    0.1661 C   0  0  0  0  0  0  0  0  0  0  0  0
   -2.6280    2.3424   -0.8000 H   0  0  0  0  0  0  0  0  0  0  0  0
   -3.0720    0.9905   -1.8510 H   0  0  0  0  0  0  0  0  0  0  0  0
   -3.2550    1.0339    1.2097 H   0  0  0  0  0  0  0  0  0  0  0  0
   -4.6117    1.1927    0.0965 H   0  0  0  0  0  0  0  0  0  0  0  0
   -1.1759   -0.1355   -1.3020 H   0  0  0  0  0  0  0  0  0  0  0  0
    0.1817   -1.3870   -0.3853 H   0  0  0  0  0  0  0  0  0  0  0  0
    2.1289    2.3880    0.3665 H   0  0  0  0  0  0  0  0  0  0  0  0
    2.3869   -2.4396   -0.4184 H   0  0  0  0  0  0  0  0  0  0  0  0
    4.7265   -2.1476   -0.4339 H   0  0  0  0  0  0  0  0  0  0  0  0
    5.9209   -0.0272    1.1515 H   0  0  0  0  0  0  0  0  0  0  0  0
    6.0574    0.2614   -0.6016 H   0  0  0  0  0  0  0  0  0  0  0  0
    6.7502   -1.1970    0.1190 H   0  0  0  0  0  0  0  0  0  0  0  0
  1 10  1  0  0  0  0
  2 10  1  0  0  0  0
  3 10  1  0  0  0  0
  4 12  2  0  0  0  0
  5  8  1  0  0  0  0
  5 12  1  0  0  0  0
  5 22  1  0  0  0  0
  6 14  1  0  0  0  0
  6 15  2  0  0  0  0
  7 15  1  0  0  0  0
  7 17  1  0  0  0  0
  7 26  1  0  0  0  0
  8  9  1  0  0  0  0
  8 18  1  0  0  0  0
  8 19  1  0  0  0  0
  9 10  1  0  0  0  0
  9 20  1  0  0  0  0
  9 21  1  0  0  0  0
 11 12  1  0  0  0  0
 11 13  1  0  0  0  0
 11 14  2  0  0  0  0
 13 16  2  0  0  0  0
 13 23  1  0  0  0  0
 14 24  1  0  0  0  0
 15 16  1  0  0  0  0
 16 25  1  0  0  0  0
 17 27  1  0  0  0  0
 17 28  1  0  0  0  0
 17 29  1  0  0  0  0
M  END
>  <PUBCHEM_COMPOUND_CID>
63227522

>  <PUBCHEM_CONFORMER_RMSD>
0.8

>  <PUBCHEM_CONFORMER_DIVERSEORDER>
2
11
17
7
15
3
16
1
9
14
12
10
6
4
5
8
13

>  <PUBCHEM_MMFF94_PARTIAL_CHARGES>
21
1 -0.34
10 1.02
11 0.09
12 0.54
13 -0.15
14 0.16
15 0.41
16 -0.15
17 0.37
2 -0.34
22 0.37
23 0.15
24 0.15
25 0.15
26 0.4
3 -0.34
4 -0.57
5 -0.73
6 -0.62
7 -0.87
8 0.3

>  <PUBCHEM_EFFECTIVE_ROTOR_COUNT>
6

>  <PUBCHEM_PHARMACOPHORE_FEATURES>
5
1 4 acceptor
1 5 donor
1 7 donor
3 6 7 15 cation
6 6 11 13 14 15 16 rings

>  <PUBCHEM_HEAVY_ATOM_COUNT>
17

>  <PUBCHEM_ATOM_DEF_STEREO_COUNT>
0

>  <PUBCHEM_ATOM_UDEF_STEREO_COUNT>
0

>  <PUBCHEM_BOND_DEF_STEREO_COUNT>
0

>  <PUBCHEM_BOND_UDEF_STEREO_COUNT>
0

>  <PUBCHEM_ISOTOPIC_ATOM_COUNT>
0

>  <PUBCHEM_COMPONENT_COUNT>
1

>  <PUBCHEM_CACTVS_TAUTO_COUNT>
7

>  <PUBCHEM_CONFORMER_ID>
03C4C68200000002

>  <PUBCHEM_MMFF94_ENERGY>
41.2606

>  <PUBCHEM_FEATURE_SELFOVERLAP>
25.372

>  <PUBCHEM_SHAPE_FINGERPRINT>
11046707 91 18334575728660238629
11543360 7 16877668967394022236
11806522 49 18409730630338205876
12032990 46 18411136931010605644
12596602 18 16200145534150318731
13288520 33 18408042892204474166
13740256 8 18412263952040822156
13862211 1 18412538808742383870
14251718 22 18041001739626132100
14252887 29 17561085766004658622
15196674 1 18410855477313325229
15375462 189 18342455963014483707
15527383 91 18060140942245820625
17834072 33 18186525402118450140
17834074 16 18408603660409552063
18186145 218 14273746161120008829
18785283 64 17986091119708109336
200 152 18411138026248111904
20261772 1 17988918994261898926
20281475 54 18337115691147263685
20871999 31 17458618991598863973
21079973 296 18334857225211986682
21150785 3 18114476578841831270
21267235 1 18410582789850557031
221490 88 18335143128389819152
23402539 116 16009030536503066652
23557571 272 17895469228805554573
23559900 14 18336537270373982688
26918003 58 18411696547874310849
2871803 45 18187075174658591303
3312278 4 18338795598479701685
474229 33 18410292510834584726
4921388 177 16298400058383050481
5104073 3 18128813037509110690
83771 10 18411139147308578421
8809292 202 18333454256854310835

>  <PUBCHEM_SHAPE_MULTIPOLES>
307.22
10.61
1.8
0.8
3.87
0.33
-0.02
-4.67
0.8
-0.74
0.15
-0.63
-0.03
0.47

>  <PUBCHEM_SHAPE_SELFOVERLAP>
631.186

>  <PUBCHEM_SHAPE_VOLUME>
177.3

>  <PUBCHEM_COORDINATE_TYPE>
2
5
10

$$$$
