63226790
 OpenBabel01182520543D

 26 26  0  0  0  0  0  0  0  0999 V2000
   -4.0538   -0.7697    1.0757 F   0  0  0  0  0  0  0  0  0  0  0  0
   -4.8293    1.0015    0.0596 F   0  0  0  0  0  0  0  0  0  0  0  0
   -4.0783   -0.6844   -1.1009 F   0  0  0  0  0  0  0  0  0  0  0  0
    2.3378    2.3661    1.1234 O   0  0  0  0  0  0  0  0  0  0  0  0
   -0.0753    0.2536   -0.0234 N   0  0  0  0  0  0  0  0  0  0  0  0
    1.0658   -1.7936   -0.0325 N   0  0  0  0  0  0  0  0  0  0  0  0
    2.3734    2.4053   -1.1691 N   0  0  0  0  0  0  0  0  0  0  0  0
   -1.3708   -0.3810   -0.0603 C   0  0  0  0  0  0  0  0  0  0  0  0
   -2.4870    0.6569    0.0029 C   0  0  0  0  0  0  0  0  0  0  0  0
    1.1231   -0.4431   -0.0110 C   0  0  0  0  0  0  0  0  0  0  0  0
   -3.8749    0.0477    0.0175 C   0  0  0  0  0  0  0  0  0  0  0  0
    2.3029    0.2828    0.0252 C   0  0  0  0  0  0  0  0  0  0  0  0
    3.5009   -0.4228    0.0401 C   0  0  0  0  0  0  0  0  0  0  0  0
    3.4828   -1.8130    0.0188 C   0  0  0  0  0  0  0  0  0  0  0  0
    2.3324    1.7387    0.0510 C   0  0  0  0  0  0  0  0  0  0  0  0
    2.2502   -2.4451   -0.0169 C   0  0  0  0  0  0  0  0  0  0  0  0
   -1.4703   -0.9698   -0.9800 H   0  0  0  0  0  0  0  0  0  0  0  0
   -1.4707   -1.0678    0.7888 H   0  0  0  0  0  0  0  0  0  0  0  0
   -2.3626    1.2746    0.9008 H   0  0  0  0  0  0  0  0  0  0  0  0
   -2.4052    1.3368   -0.8540 H   0  0  0  0  0  0  0  0  0  0  0  0
   -0.0399    1.2265   -0.3093 H   0  0  0  0  0  0  0  0  0  0  0  0
    4.4540    0.0986    0.0691 H   0  0  0  0  0  0  0  0  0  0  0  0
    4.4042   -2.3838    0.0301 H   0  0  0  0  0  0  0  0  0  0  0  0
    2.1817   -3.5278   -0.0346 H   0  0  0  0  0  0  0  0  0  0  0  0
    2.3764    1.9092   -2.0547 H   0  0  0  0  0  0  0  0  0  0  0  0
    2.4012    3.4186   -1.2095 H   0  0  0  0  0  0  0  0  0  0  0  0
  1 11  1  0  0  0  0
  2 11  1  0  0  0  0
  3 11  1  0  0  0  0
  4 15  2  0  0  0  0
  5  8  1  0  0  0  0
  5 10  1  0  0  0  0
  5 21  1  0  0  0  0
  6 10  1  0  0  0  0
  6 16  2  0  0  0  0
  7 15  1  0  0  0  0
  7 25  1  0  0  0  0
  7 26  1  0  0  0  0
  8  9  1  0  0  0  0
  8 17  1  0  0  0  0
  8 18  1  0  0  0  0
  9 11  1  0  0  0  0
  9 19  1  0  0  0  0
  9 20  1  0  0  0  0
 10 12  2  0  0  0  0
 12 13  1  0  0  0  0
 12 15  1  0  0  0  0
 13 14  2  0  0  0  0
 13 22  1  0  0  0  0
 14 16  1  0  0  0  0
 14 23  1  0  0  0  0
 16 24  1  0  0  0  0
M  END
>  <PUBCHEM_COMPOUND_CID>
63226790

>  <PUBCHEM_CONFORMER_RMSD>
0.6

>  <PUBCHEM_CONFORMER_DIVERSEORDER>
1
28
33
27
37
32
20
15
26
31
23
41
35
21
18
40
39
17
19
34
36
8
38
29
3
9
24
7
30
16
4
10
25
22
14
5
13
2
6
12
11

>  <PUBCHEM_MMFF94_PARTIAL_CHARGES>
21
1 -0.34
10 0.41
11 1.02
12 0.09
13 -0.15
14 -0.15
15 0.54
16 0.16
2 -0.34
21 0.4
22 0.15
23 0.15
24 0.15
25 0.37
26 0.37
3 -0.34
4 -0.57
5 -0.87
6 -0.62
7 -0.8
8 0.37

>  <PUBCHEM_EFFECTIVE_ROTOR_COUNT>
5

>  <PUBCHEM_PHARMACOPHORE_FEATURES>
6
1 4 acceptor
1 5 cation
1 5 donor
1 6 acceptor
1 7 donor
6 6 10 12 13 14 16 rings

>  <PUBCHEM_HEAVY_ATOM_COUNT>
16

>  <PUBCHEM_ATOM_DEF_STEREO_COUNT>
0

>  <PUBCHEM_ATOM_UDEF_STEREO_COUNT>
0

>  <PUBCHEM_BOND_DEF_STEREO_COUNT>
0

>  <PUBCHEM_BOND_UDEF_STEREO_COUNT>
0

>  <PUBCHEM_ISOTOPIC_ATOM_COUNT>
0

>  <PUBCHEM_COMPONENT_COUNT>
1

>  <PUBCHEM_CACTVS_TAUTO_COUNT>
7

>  <PUBCHEM_CONFORMER_ID>
03C4C3A600000001

>  <PUBCHEM_MMFF94_ENERGY>
48.4481

>  <PUBCHEM_FEATURE_SELFOVERLAP>
30.446

>  <PUBCHEM_SHAPE_FINGERPRINT>
10608611 8 18334574638028741285
11405975 8 18336266760944125121
11471102 20 18410572868734429734
11615757 297 18130793356181036067
14251717 144 18411134723302528454
14252887 29 17988081063676012374
14415576 193 18408888455432990373
15442244 35 18196937664783675713
15477762 27 18411418367480414126
15501101 241 18333732390509833212
17134986 127 17973174104075154732
18186145 218 17822006493641112753
19050596 39 18343865519999853811
200 152 18201994405186541079
20559304 39 18343866593604716160
20606313 2 18409449159408594574
20645477 70 18412822465383061631
20671657 1 18342738558914452524
20708731 107 18408047307979539236
221490 88 18336273413221297050
22289505 5 18263918843690500652
2255824 54 18409169917809635742
22854114 111 18413105091004675948
22943178 12 18114183042916217555
23402655 69 18341048523648346871
23558518 356 17974280234237068450
23559900 14 18333449841627690075
3060560 45 18272374144438707678
5104073 3 18410576197708540451
6049 1 17968650528190588365
7364860 26 18342454846528637112
9709674 26 18409173207797328083
9971528 1 18201434727887578946

>  <PUBCHEM_SHAPE_MULTIPOLES>
286.64
8.43
2.4
0.82
11.68
0.57
0.02
-0.64
-0.1
-3.06
0.03
0.11
0.24
-0.02

>  <PUBCHEM_SHAPE_SELFOVERLAP>
593.562

>  <PUBCHEM_SHAPE_VOLUME>
163.9

>  <PUBCHEM_COORDINATE_TYPE>
2
5
10

$$$$
