63227520
 OpenBabel01182520543D

 32 32  0  0  0  0  0  0  0  0999 V2000
    4.7923   -0.9880   -0.6779 F   0  0  0  0  0  0  0  0  0  0  0  0
    4.4807    1.1687   -0.6025 F   0  0  0  0  0  0  0  0  0  0  0  0
    4.6615    0.0339    1.2484 F   0  0  0  0  0  0  0  0  0  0  0  0
    0.0081    1.8076   -1.2287 O   0  0  0  0  0  0  0  0  0  0  0  0
    0.4840    0.6746    0.7389 N   0  0  0  0  0  0  0  0  0  0  0  0
   -1.3969   -1.5067   -0.1147 N   0  0  0  0  0  0  0  0  0  0  0  0
   -3.6194   -0.7212    0.1375 N   0  0  0  0  0  0  0  0  0  0  0  0
    1.9032    0.8966    0.7264 C   0  0  0  0  0  0  0  0  0  0  0  0
    2.6607   -0.2036   -0.0077 C   0  0  0  0  0  0  0  0  0  0  0  0
   -1.8071    0.8637   -0.0833 C   0  0  0  0  0  0  0  0  0  0  0  0
   -2.3090   -0.4260   -0.0155 C   0  0  0  0  0  0  0  0  0  0  0  0
   -0.3608    1.1558   -0.2553 C   0  0  0  0  0  0  0  0  0  0  0  0
    4.1627   -0.0016   -0.0046 C   0  0  0  0  0  0  0  0  0  0  0  0
   -1.8105   -2.8705   -0.0566 C   0  0  0  0  0  0  0  0  0  0  0  0
   -2.7080    1.9186    0.0120 C   0  0  0  0  0  0  0  0  0  0  0  0
   -4.0642    1.6550    0.1700 C   0  0  0  0  0  0  0  0  0  0  0  0
   -0.6121   -3.7868   -0.2131 C   0  0  0  0  0  0  0  0  0  0  0  0
   -4.4651    0.3299    0.2266 C   0  0  0  0  0  0  0  0  0  0  0  0
    2.1092    1.8695    0.2664 H   0  0  0  0  0  0  0  0  0  0  0  0
    2.2279    0.9458    1.7713 H   0  0  0  0  0  0  0  0  0  0  0  0
    2.4300   -1.1735    0.4495 H   0  0  0  0  0  0  0  0  0  0  0  0
    2.3104   -0.2618   -1.0453 H   0  0  0  0  0  0  0  0  0  0  0  0
    0.0906    0.1450    1.5117 H   0  0  0  0  0  0  0  0  0  0  0  0
   -0.5043   -1.3015   -0.5517 H   0  0  0  0  0  0  0  0  0  0  0  0
   -2.2968   -3.0813    0.9028 H   0  0  0  0  0  0  0  0  0  0  0  0
   -2.5307   -3.0880   -0.8539 H   0  0  0  0  0  0  0  0  0  0  0  0
   -2.3665    2.9492   -0.0341 H   0  0  0  0  0  0  0  0  0  0  0  0
   -4.7846    2.4613    0.2469 H   0  0  0  0  0  0  0  0  0  0  0  0
   -0.1170   -3.6276   -1.1771 H   0  0  0  0  0  0  0  0  0  0  0  0
    0.1266   -3.6067    0.5754 H   0  0  0  0  0  0  0  0  0  0  0  0
   -0.9225   -4.8349   -0.1582 H   0  0  0  0  0  0  0  0  0  0  0  0
   -5.5116    0.0710    0.3491 H   0  0  0  0  0  0  0  0  0  0  0  0
  1 13  1  0  0  0  0
  2 13  1  0  0  0  0
  3 13  1  0  0  0  0
  4 12  2  0  0  0  0
  5  8  1  0  0  0  0
  5 12  1  0  0  0  0
  5 23  1  0  0  0  0
  6 11  1  0  0  0  0
  6 14  1  0  0  0  0
  6 24  1  0  0  0  0
  7 11  1  0  0  0  0
  7 18  2  0  0  0  0
  8  9  1  0  0  0  0
  8 19  1  0  0  0  0
  8 20  1  0  0  0  0
  9 13  1  0  0  0  0
  9 21  1  0  0  0  0
  9 22  1  0  0  0  0
 10 11  2  0  0  0  0
 10 12  1  0  0  0  0
 10 15  1  0  0  0  0
 14 17  1  0  0  0  0
 14 25  1  0  0  0  0
 14 26  1  0  0  0  0
 15 16  2  0  0  0  0
 15 27  1  0  0  0  0
 16 18  1  0  0  0  0
 16 28  1  0  0  0  0
 17 29  1  0  0  0  0
 17 30  1  0  0  0  0
 17 31  1  0  0  0  0
 18 32  1  0  0  0  0
M  END
>  <PUBCHEM_COMPOUND_CID>
63227520

>  <PUBCHEM_CONFORMER_RMSD>
0.8

>  <PUBCHEM_CONFORMER_DIVERSEORDER>
1
10
29
37
31
22
19
27
30
18
4
24
7
35
25
12
36
15
16
34
9
17
23
2
33
28
26
6
21
11
32
14
3
13
20
5
8

>  <PUBCHEM_MMFF94_PARTIAL_CHARGES>
21
1 -0.34
10 0.09
11 0.41
12 0.54
13 1.02
14 0.37
15 -0.15
16 -0.15
18 0.16
2 -0.34
23 0.37
24 0.4
27 0.15
28 0.15
3 -0.34
32 0.15
4 -0.57
5 -0.73
6 -0.87
7 -0.62
8 0.3

>  <PUBCHEM_EFFECTIVE_ROTOR_COUNT>
7

>  <PUBCHEM_PHARMACOPHORE_FEATURES>
6
1 4 acceptor
1 5 donor
1 6 cation
1 6 donor
1 7 acceptor
6 7 10 11 15 16 18 rings

>  <PUBCHEM_HEAVY_ATOM_COUNT>
18

>  <PUBCHEM_ATOM_DEF_STEREO_COUNT>
0

>  <PUBCHEM_ATOM_UDEF_STEREO_COUNT>
0

>  <PUBCHEM_BOND_DEF_STEREO_COUNT>
0

>  <PUBCHEM_BOND_UDEF_STEREO_COUNT>
0

>  <PUBCHEM_ISOTOPIC_ATOM_COUNT>
0

>  <PUBCHEM_COMPONENT_COUNT>
1

>  <PUBCHEM_CACTVS_TAUTO_COUNT>
7

>  <PUBCHEM_CONFORMER_ID>
03C4C68000000001

>  <PUBCHEM_MMFF94_ENERGY>
42.5032

>  <PUBCHEM_FEATURE_SELFOVERLAP>
30.447

>  <PUBCHEM_SHAPE_FINGERPRINT>
10616163 171 18338801229472185054
12173636 292 18339353055054166924
12500047 106 18413384349830937992
12507560 18 17632863010231230785
13544592 145 18272658900733216470
138480 1 17546729248769812711
14022349 108 18121786032689027571
14115302 16 18411707590641443332
15006816 218 18268711597701680263
15042514 8 18265338481481377619
15375358 24 18060418010675515684
17804303 29 18341613754324627193
17859628 97 18336825273748625226
21478907 32 17980195615426941199
23175994 123 17275387598858918553
23402539 116 18273207587274691405
23559900 14 18272933826227685480
23728640 28 18411136982682413443
266924 87 18122051006596929621
43471831 8 18337670789911303291
465052 167 17678195956681505891
5364581 5 17911777370722708952
58051976 100 18260269654744453276
59755656 215 18411696570325067767
9709674 26 18272654584053804670

>  <PUBCHEM_SHAPE_MULTIPOLES>
327.8
9.16
2.99
0.81
9.29
3.89
-0.01
-2.25
-0.52
-2.04
0.37
0.47
-0.18
0.03

>  <PUBCHEM_SHAPE_SELFOVERLAP>
668.347

>  <PUBCHEM_SHAPE_VOLUME>
190.8

>  <PUBCHEM_COORDINATE_TYPE>
2
5
10

$$$$
