63227880
 OpenBabel01182520543D

 26 26  0  0  0  0  0  0  0  0999 V2000
   -2.2734   -1.3722    0.3964 F   0  0  0  0  0  0  0  0  0  0  0  0
   -4.3033   -1.1008    1.1565 F   0  0  0  0  0  0  0  0  0  0  0  0
   -3.9329   -1.1190   -0.9922 F   0  0  0  0  0  0  0  0  0  0  0  0
   -0.0638    2.3061    0.6342 O   0  0  0  0  0  0  0  0  0  0  0  0
   -0.9733    0.6872   -0.7564 N   0  0  0  0  0  0  0  0  0  0  0  0
    3.7495    0.6263    0.2234 N   0  0  0  0  0  0  0  0  0  0  0  0
    5.0172   -1.3802    0.0134 N   0  0  0  0  0  0  0  0  0  0  0  0
   -2.2785    1.2753   -0.8746 C   0  0  0  0  0  0  0  0  0  0  0  0
   -3.2392    0.7882    0.2039 C   0  0  0  0  0  0  0  0  0  0  0  0
   -3.4345   -0.7147    0.1979 C   0  0  0  0  0  0  0  0  0  0  0  0
    0.0434    1.2596    0.0002 C   0  0  0  0  0  0  0  0  0  0  0  0
    1.3438    0.5415   -0.0008 C   0  0  0  0  0  0  0  0  0  0  0  0
    1.4048   -0.8311   -0.2150 C   0  0  0  0  0  0  0  0  0  0  0  0
    2.5341    1.2182    0.2117 C   0  0  0  0  0  0  0  0  0  0  0  0
    2.6368   -1.4757   -0.2102 C   0  0  0  0  0  0  0  0  0  0  0  0
    3.7693   -0.7088    0.0116 C   0  0  0  0  0  0  0  0  0  0  0  0
   -2.1891    2.3659   -0.8227 H   0  0  0  0  0  0  0  0  0  0  0  0
   -2.6615    1.0194   -1.8683 H   0  0  0  0  0  0  0  0  0  0  0  0
   -2.8671    1.0887    1.1905 H   0  0  0  0  0  0  0  0  0  0  0  0
   -4.2103    1.2767    0.0654 H   0  0  0  0  0  0  0  0  0  0  0  0
   -0.8011   -0.1538   -1.2968 H   0  0  0  0  0  0  0  0  0  0  0  0
    0.5148   -1.4355   -0.3615 H   0  0  0  0  0  0  0  0  0  0  0  0
    2.5581    2.2903    0.3813 H   0  0  0  0  0  0  0  0  0  0  0  0
    2.6920   -2.5475   -0.3713 H   0  0  0  0  0  0  0  0  0  0  0  0
    5.0392   -2.3554    0.2851 H   0  0  0  0  0  0  0  0  0  0  0  0
    5.8414   -0.8168    0.1820 H   0  0  0  0  0  0  0  0  0  0  0  0
  1 10  1  0  0  0  0
  2 10  1  0  0  0  0
  3 10  1  0  0  0  0
  4 11  2  0  0  0  0
  5  8  1  0  0  0  0
  5 11  1  0  0  0  0
  5 21  1  0  0  0  0
  6 14  1  0  0  0  0
  6 16  2  0  0  0  0
  7 16  1  0  0  0  0
  7 25  1  0  0  0  0
  7 26  1  0  0  0  0
  8  9  1  0  0  0  0
  8 17  1  0  0  0  0
  8 18  1  0  0  0  0
  9 10  1  0  0  0  0
  9 19  1  0  0  0  0
  9 20  1  0  0  0  0
 11 12  1  0  0  0  0
 12 13  1  0  0  0  0
 12 14  2  0  0  0  0
 13 15  2  0  0  0  0
 13 22  1  0  0  0  0
 14 23  1  0  0  0  0
 15 16  1  0  0  0  0
 15 24  1  0  0  0  0
M  END
>  <PUBCHEM_COMPOUND_CID>
63227880

>  <PUBCHEM_CONFORMER_RMSD>
0.6

>  <PUBCHEM_CONFORMER_DIVERSEORDER>
2
8
24
18
15
25
22
3
6
1
17
7
21
26
5
4
28
16
9
12
27
20
11
23
19
13
10
14

>  <PUBCHEM_MMFF94_PARTIAL_CHARGES>
21
1 -0.34
10 1.02
11 0.54
12 0.09
13 -0.15
14 0.16
15 -0.15
16 0.41
2 -0.34
21 0.37
22 0.15
23 0.15
24 0.15
25 0.4
26 0.4
3 -0.34
4 -0.57
5 -0.73
6 -0.62
7 -0.9
8 0.3

>  <PUBCHEM_EFFECTIVE_ROTOR_COUNT>
5

>  <PUBCHEM_PHARMACOPHORE_FEATURES>
5
1 4 acceptor
1 5 donor
1 7 donor
3 6 7 16 cation
6 6 12 13 14 15 16 rings

>  <PUBCHEM_HEAVY_ATOM_COUNT>
16

>  <PUBCHEM_ATOM_DEF_STEREO_COUNT>
0

>  <PUBCHEM_ATOM_UDEF_STEREO_COUNT>
0

>  <PUBCHEM_BOND_DEF_STEREO_COUNT>
0

>  <PUBCHEM_BOND_UDEF_STEREO_COUNT>
0

>  <PUBCHEM_ISOTOPIC_ATOM_COUNT>
0

>  <PUBCHEM_COMPONENT_COUNT>
1

>  <PUBCHEM_CACTVS_TAUTO_COUNT>
7

>  <PUBCHEM_CONFORMER_ID>
03C4C7E800000002

>  <PUBCHEM_MMFF94_ENERGY>
37.2553

>  <PUBCHEM_FEATURE_SELFOVERLAP>
25.372

>  <PUBCHEM_SHAPE_FINGERPRINT>
11046707 91 18334858290231987694
11543360 7 16805330993770052476
12032990 46 18411138022095731700
12500047 106 18043804282474230749
13296908 3 18413384324019020708
14252887 29 17632580410099760174
14350558 41 18334863818013348324
15196674 1 18410573989446424930
15375462 189 18342738541628938955
17834074 16 18407759239684651622
18186145 218 14057012615075041364
19107657 46 18411699846472348462
200 152 18272646835642366230
20201158 50 18408603664746782347
20261772 1 18131348643760268894
20281475 54 18336833103621036069
20300324 65 10953746620832581145
20645477 70 18271515421187530703
20871999 31 17458339715566261613
21079973 296 18334011696580715746
21267235 1 18410865351480419294
221490 88 18408044013708000480
22485316 2 18412259532319215925
23402539 116 15936692554278606284
23557571 272 17604132788039957492
23559900 14 18336537244915239888
25610 137 18412826884904493284
26918003 58 18339355262899127672
2871803 45 18186793690939023723
3312278 4 18338514114833902668
4416823 128 18408044026429268113
4921388 177 16298400053998418897
5104073 3 18340201904301430080
633830 44 12396851139146374928
83771 10 18410857663546734857
8809292 202 18333735706077015954

>  <PUBCHEM_SHAPE_MULTIPOLES>
286.64
8.79
1.87
0.81
0.39
0.28
-0.03
-4.23
0.58
-0.13
0.14
-0.6
-0.01
0.48

>  <PUBCHEM_SHAPE_SELFOVERLAP>
593.481

>  <PUBCHEM_SHAPE_VOLUME>
163.7

>  <PUBCHEM_COORDINATE_TYPE>
2
5
10

$$$$
