63961449
 OpenBabel01182520543D

 27 27  0  0  0  0  0  0  0  0999 V2000
   -3.8192   -1.3117    0.8026 S   0  0  0  0  0  0  0  0  0  0  0  0
   -0.5666    2.2198    0.4157 O   0  0  0  0  0  0  0  0  0  0  0  0
   -1.4547    0.3222   -0.5779 N   0  0  0  0  0  0  0  0  0  0  0  0
    3.3131    0.7063   -0.0196 N   0  0  0  0  0  0  0  0  0  0  0  0
    4.6988   -1.2315    0.0226 N   0  0  0  0  0  0  0  0  0  0  0  0
   -2.8117    0.8080   -0.6845 C   0  0  0  0  0  0  0  0  0  0  0  0
   -3.6591    0.4804    0.5373 C   0  0  0  0  0  0  0  0  0  0  0  0
    0.9092    0.4490   -0.0141 C   0  0  0  0  0  0  0  0  0  0  0  0
   -0.4047    1.0680   -0.0277 C   0  0  0  0  0  0  0  0  0  0  0  0
    1.0499   -0.9341    0.0159 C   0  0  0  0  0  0  0  0  0  0  0  0
    2.0617    1.2179   -0.0308 C   0  0  0  0  0  0  0  0  0  0  0  0
    2.3210   -1.4978    0.0283 C   0  0  0  0  0  0  0  0  0  0  0  0
    3.4103   -0.6419    0.0097 C   0  0  0  0  0  0  0  0  0  0  0  0
   -5.0478   -1.6545   -0.4774 C   0  0  0  0  0  0  0  0  0  0  0  0
   -2.7803    1.8958   -0.8145 H   0  0  0  0  0  0  0  0  0  0  0  0
   -3.2407    0.3888   -1.6002 H   0  0  0  0  0  0  0  0  0  0  0  0
   -3.1920    0.9001    1.4349 H   0  0  0  0  0  0  0  0  0  0  0  0
   -4.6538    0.9292    0.4502 H   0  0  0  0  0  0  0  0  0  0  0  0
   -1.2744   -0.5947   -0.9726 H   0  0  0  0  0  0  0  0  0  0  0  0
    0.1967   -1.6043    0.0586 H   0  0  0  0  0  0  0  0  0  0  0  0
    2.0240    2.3027   -0.0583 H   0  0  0  0  0  0  0  0  0  0  0  0
    2.4389   -2.5762    0.0573 H   0  0  0  0  0  0  0  0  0  0  0  0
   -5.3402   -2.7065   -0.4158 H   0  0  0  0  0  0  0  0  0  0  0  0
   -4.6361   -1.4749   -1.4731 H   0  0  0  0  0  0  0  0  0  0  0  0
   -5.9410   -1.0420   -0.3293 H   0  0  0  0  0  0  0  0  0  0  0  0
    4.8097   -2.1375    0.4611 H   0  0  0  0  0  0  0  0  0  0  0  0
    5.4919   -0.6021    0.0153 H   0  0  0  0  0  0  0  0  0  0  0  0
  1  7  1  0  0  0  0
  1 14  1  0  0  0  0
  2  9  2  0  0  0  0
  3  6  1  0  0  0  0
  3  9  1  0  0  0  0
  3 19  1  0  0  0  0
  4 11  1  0  0  0  0
  4 13  2  0  0  0  0
  5 13  1  0  0  0  0
  5 26  1  0  0  0  0
  5 27  1  0  0  0  0
  6  7  1  0  0  0  0
  6 15  1  0  0  0  0
  6 16  1  0  0  0  0
  7 17  1  0  0  0  0
  7 18  1  0  0  0  0
  8  9  1  0  0  0  0
  8 10  1  0  0  0  0
  8 11  2  0  0  0  0
 10 12  2  0  0  0  0
 10 20  1  0  0  0  0
 11 21  1  0  0  0  0
 12 13  1  0  0  0  0
 12 22  1  0  0  0  0
 14 23  1  0  0  0  0
 14 24  1  0  0  0  0
 14 25  1  0  0  0  0
M  END
>  <PUBCHEM_COMPOUND_CID>
63961449

>  <PUBCHEM_CONFORMER_RMSD>
0.6

>  <PUBCHEM_CONFORMER_DIVERSEORDER>
2
51
24
68
37
60
30
58
66
35
67
46
1
73
59
34
23
52
22
63
44
69
38
5
49
65
57
29
3
36
45
76
50
8
75
21
71
18
25
43
19
16
61
48
77
9
47
72
41
33
62
7
28
14
32
56
12
17
40
31
70
27
15
10
74
20
54
26
42
11
55
13
64
39
53
4
6

>  <PUBCHEM_MMFF94_PARTIAL_CHARGES>
20
1 -0.46
10 -0.15
11 0.16
12 -0.15
13 0.41
14 0.23
19 0.37
2 -0.57
20 0.15
21 0.15
22 0.15
26 0.4
27 0.4
3 -0.73
4 -0.62
5 -0.9
6 0.3
7 0.23
8 0.09
9 0.54

>  <PUBCHEM_EFFECTIVE_ROTOR_COUNT>
5

>  <PUBCHEM_PHARMACOPHORE_FEATURES>
6
1 14 hydrophobe
1 2 acceptor
1 3 donor
1 5 donor
3 4 5 13 cation
6 4 8 10 11 12 13 rings

>  <PUBCHEM_HEAVY_ATOM_COUNT>
14

>  <PUBCHEM_ATOM_DEF_STEREO_COUNT>
0

>  <PUBCHEM_ATOM_UDEF_STEREO_COUNT>
0

>  <PUBCHEM_BOND_DEF_STEREO_COUNT>
0

>  <PUBCHEM_BOND_UDEF_STEREO_COUNT>
0

>  <PUBCHEM_ISOTOPIC_ATOM_COUNT>
0

>  <PUBCHEM_COMPONENT_COUNT>
1

>  <PUBCHEM_CACTVS_TAUTO_COUNT>
7

>  <PUBCHEM_CONFORMER_ID>
03CFF96900000002

>  <PUBCHEM_MMFF94_ENERGY>
37.0326

>  <PUBCHEM_FEATURE_SELFOVERLAP>
30.446

>  <PUBCHEM_SHAPE_FINGERPRINT>
11046707 91 18408604755942762587
11543360 7 16515695454358134190
11806522 49 18335985294362117838
12032990 46 18410576179911485396
13296908 3 18410290302862380141
14123255 352 10880002337287524379
14251717 144 18337672026751069147
14252887 29 17775291542958988614
15196674 1 18410293618286858859
15375462 189 18201996659664517847
17834074 16 18334296504547298907
19422 9 18413113865960465293
200 152 18272928363029187575
20261772 1 18059854008307953367
20281475 54 18410295770070807409
20645477 70 18341041952543790543
20871999 31 17312814962442368439
221490 88 18261399991421156050
22485316 2 18408603656541794185
23402539 116 15719392789583290870
23557571 272 17313089887251574789
25610 137 18410577288124142308
26918003 58 18410007693834968353
2871803 45 18113892788926328403
3312278 4 18337107848283948937
5104073 3 18413105039523078600
76465 3 17968085383540644130
83771 10 18410294726784060113
8809292 202 18187090554657007779

>  <PUBCHEM_SHAPE_MULTIPOLES>
271.15
9.25
1.89
0.76
3.86
0.1
-0.02
-5.18
0.04
0.32
-0.1
0.56
-0.03
0.03

>  <PUBCHEM_SHAPE_SELFOVERLAP>
534.461

>  <PUBCHEM_SHAPE_VOLUME>
164.6

>  <PUBCHEM_COORDINATE_TYPE>
2
5
10

$$$$
