64088008
 OpenBabel01182520543D

 21 21  0  0  0  0  0  0  0  0999 V2000
    2.7091    0.4753    1.3139 F   0  0  0  0  0  0  0  0  0  0  0  0
    3.3462    0.5391   -0.7691 F   0  0  0  0  0  0  0  0  0  0  0  0
    3.7434   -1.2353    0.4465 F   0  0  0  0  0  0  0  0  0  0  0  0
    0.7525    1.3363   -0.9193 O   0  0  0  0  0  0  0  0  0  0  0  0
   -3.2056    0.6048    0.4051 N   0  0  0  0  0  0  0  0  0  0  0  0
   -1.4600    2.2051    0.2928 N   0  0  0  0  0  0  0  0  0  0  0  0
    1.5032   -0.8437   -0.2177 C   0  0  0  0  0  0  0  0  0  0  0  0
   -0.9783   -0.0948   -0.2234 C   0  0  0  0  0  0  0  0  0  0  0  0
    0.4206    0.2163   -0.4829 C   0  0  0  0  0  0  0  0  0  0  0  0
    2.8410   -0.2650    0.1900 C   0  0  0  0  0  0  0  0  0  0  0  0
   -1.9027    0.8654    0.1551 C   0  0  0  0  0  0  0  0  0  0  0  0
   -1.4193   -1.4071   -0.3538 C   0  0  0  0  0  0  0  0  0  0  0  0
   -2.7525   -1.7145   -0.1052 C   0  0  0  0  0  0  0  0  0  0  0  0
   -3.5975   -0.6818    0.2681 C   0  0  0  0  0  0  0  0  0  0  0  0
    1.6206   -1.4372   -1.1307 H   0  0  0  0  0  0  0  0  0  0  0  0
    1.1678   -1.5075    0.5864 H   0  0  0  0  0  0  0  0  0  0  0  0
   -0.7544   -2.2085   -0.6626 H   0  0  0  0  0  0  0  0  0  0  0  0
   -3.1197   -2.7296   -0.2042 H   0  0  0  0  0  0  0  0  0  0  0  0
   -4.6465   -0.8690    0.4724 H   0  0  0  0  0  0  0  0  0  0  0  0
   -0.5058    2.3718    0.5876 H   0  0  0  0  0  0  0  0  0  0  0  0
   -2.1595    2.8850    0.5655 H   0  0  0  0  0  0  0  0  0  0  0  0
  1 10  1  0  0  0  0
  2 10  1  0  0  0  0
  3 10  1  0  0  0  0
  4  9  2  0  0  0  0
  5 11  1  0  0  0  0
  5 14  2  0  0  0  0
  6 11  1  0  0  0  0
  6 20  1  0  0  0  0
  6 21  1  0  0  0  0
  7  9  1  0  0  0  0
  7 10  1  0  0  0  0
  7 15  1  0  0  0  0
  7 16  1  0  0  0  0
  8  9  1  0  0  0  0
  8 11  2  0  0  0  0
  8 12  1  0  0  0  0
 12 13  2  0  0  0  0
 12 17  1  0  0  0  0
 13 14  1  0  0  0  0
 13 18  1  0  0  0  0
 14 19  1  0  0  0  0
M  END
>  <PUBCHEM_COMPOUND_CID>
64088008

>  <PUBCHEM_CONFORMER_RMSD>
0.6

>  <PUBCHEM_CONFORMER_DIVERSEORDER>
1
17
16
14
8
15
11
7
3
6
4
5
2
12
13
10
9

>  <PUBCHEM_MMFF94_PARTIAL_CHARGES>
19
1 -0.34
10 1.02
11 0.41
12 -0.15
13 -0.15
14 0.16
17 0.15
18 0.15
19 0.15
2 -0.34
20 0.4
21 0.4
3 -0.34
4 -0.57
5 -0.62
6 -0.9
7 0.06
8 0.09
9 0.42

>  <PUBCHEM_EFFECTIVE_ROTOR_COUNT>
3

>  <PUBCHEM_PHARMACOPHORE_FEATURES>
5
1 4 acceptor
1 5 acceptor
1 6 cation
1 6 donor
6 5 8 11 12 13 14 rings

>  <PUBCHEM_HEAVY_ATOM_COUNT>
14

>  <PUBCHEM_ATOM_DEF_STEREO_COUNT>
0

>  <PUBCHEM_ATOM_UDEF_STEREO_COUNT>
0

>  <PUBCHEM_BOND_DEF_STEREO_COUNT>
0

>  <PUBCHEM_BOND_UDEF_STEREO_COUNT>
0

>  <PUBCHEM_ISOTOPIC_ATOM_COUNT>
0

>  <PUBCHEM_COMPONENT_COUNT>
1

>  <PUBCHEM_CACTVS_TAUTO_COUNT>
9

>  <PUBCHEM_CONFORMER_ID>
03D1E7C800000001

>  <PUBCHEM_MMFF94_ENERGY>
41.0315

>  <PUBCHEM_FEATURE_SELFOVERLAP>
25.372

>  <PUBCHEM_SHAPE_FINGERPRINT>
10130415 120 18336270149583676459
11132069 177 18411694387531842498
11769659 78 18334572481723160575
12251169 10 18411413990992888682
12382932 28 18342744022228982075
12932764 1 17561078120556806622
13581323 91 18413670209895424319
14144814 61 18335704957087659903
15669948 3 18342740766369575863
16945 1 18411707569145150645
17804303 29 18271530801571081070
18186145 218 10375876289974155090
19049666 15 17630053645968094886
19422 9 18260271824072326282
20361792 2 17167577189578472718
20510252 161 18201443536680932545
20528008 55 18201712960010798899
20645464 45 17561368370236144423
20871998 184 18130792278302740847
21501925 9 18338794645281675191
22445834 79 18115303358869924274
23402539 116 18202556277424898863
23463225 33 18334858281805934302
23552423 10 17902239136988721773
23559900 14 18343862195700447828
2748010 2 17833846975510178805
369184 2 17846495937427454071
53812654 25 18271810189414985287
7364860 26 18124601035347761204
75552 356 18412263939103276719

>  <PUBCHEM_SHAPE_MULTIPOLES>
250.46
6.16
1.67
0.82
2.57
0.31
0.04
-1.4
1.05
-0.85
-0.01
0.38
0.09
-0.32

>  <PUBCHEM_SHAPE_SELFOVERLAP>
526.53

>  <PUBCHEM_SHAPE_VOLUME>
141.8

>  <PUBCHEM_COORDINATE_TYPE>
2
5
10

$$$$
