64089131
 OpenBabel01182520543D

 18 18  0  0  0  0  0  0  0  0999 V2000
    2.8061    0.5963    0.9752 F   0  0  0  0  0  0  0  0  0  0  0  0
    1.6025   -1.2095    1.1222 F   0  0  0  0  0  0  0  0  0  0  0  0
    2.9367   -0.9150   -0.5839 F   0  0  0  0  0  0  0  0  0  0  0  0
    1.2372    1.2629   -1.3572 O   0  0  0  0  0  0  0  0  0  0  0  0
   -2.6911    0.6032    0.4039 N   0  0  0  0  0  0  0  0  0  0  0  0
   -0.9967    2.2614    0.3923 N   0  0  0  0  0  0  0  0  0  0  0  0
   -0.4466    0.0170   -0.2769 C   0  0  0  0  0  0  0  0  0  0  0  0
   -1.3983    0.9206    0.1675 C   0  0  0  0  0  0  0  0  0  0  0  0
    0.9406    0.3884   -0.5198 C   0  0  0  0  0  0  0  0  0  0  0  0
   -0.8473   -1.2970   -0.4926 C   0  0  0  0  0  0  0  0  0  0  0  0
    2.0692   -0.2832    0.2469 C   0  0  0  0  0  0  0  0  0  0  0  0
   -2.1688   -1.6619   -0.2607 C   0  0  0  0  0  0  0  0  0  0  0  0
   -3.0435   -0.6832    0.1831 C   0  0  0  0  0  0  0  0  0  0  0  0
   -0.1430   -2.0461   -0.8449 H   0  0  0  0  0  0  0  0  0  0  0  0
   -2.5039   -2.6799   -0.4229 H   0  0  0  0  0  0  0  0  0  0  0  0
   -4.0850   -0.9165    0.3787 H   0  0  0  0  0  0  0  0  0  0  0  0
   -0.0444    2.4395    0.6864 H   0  0  0  0  0  0  0  0  0  0  0  0
   -1.7143    2.9000    0.7134 H   0  0  0  0  0  0  0  0  0  0  0  0
  1 11  1  0  0  0  0
  2 11  1  0  0  0  0
  3 11  1  0  0  0  0
  4  9  2  0  0  0  0
  5  8  1  0  0  0  0
  5 13  2  0  0  0  0
  6  8  1  0  0  0  0
  6 17  1  0  0  0  0
  6 18  1  0  0  0  0
  7  8  2  0  0  0  0
  7  9  1  0  0  0  0
  7 10  1  0  0  0  0
  9 11  1  0  0  0  0
 10 12  2  0  0  0  0
 10 14  1  0  0  0  0
 12 13  1  0  0  0  0
 12 15  1  0  0  0  0
 13 16  1  0  0  0  0
M  END
>  <PUBCHEM_COMPOUND_CID>
64089131

>  <PUBCHEM_CONFORMER_RMSD>
0.6

>  <PUBCHEM_CONFORMER_DIVERSEORDER>
2
3
5
4
1

>  <PUBCHEM_MMFF94_PARTIAL_CHARGES>
18
1 -0.34
10 -0.15
11 1.08
12 -0.15
13 0.16
14 0.15
15 0.15
16 0.15
17 0.4
18 0.4
2 -0.34
3 -0.34
4 -0.57
5 -0.62
6 -0.9
7 0.09
8 0.41
9 0.42

>  <PUBCHEM_EFFECTIVE_ROTOR_COUNT>
2

>  <PUBCHEM_PHARMACOPHORE_FEATURES>
5
1 4 acceptor
1 5 acceptor
1 6 cation
1 6 donor
6 5 7 8 10 12 13 rings

>  <PUBCHEM_HEAVY_ATOM_COUNT>
13

>  <PUBCHEM_ATOM_DEF_STEREO_COUNT>
0

>  <PUBCHEM_ATOM_UDEF_STEREO_COUNT>
0

>  <PUBCHEM_BOND_DEF_STEREO_COUNT>
0

>  <PUBCHEM_BOND_UDEF_STEREO_COUNT>
0

>  <PUBCHEM_ISOTOPIC_ATOM_COUNT>
0

>  <PUBCHEM_COMPONENT_COUNT>
1

>  <PUBCHEM_CACTVS_TAUTO_COUNT>
5

>  <PUBCHEM_CONFORMER_ID>
03D1EC2B00000002

>  <PUBCHEM_MMFF94_ENERGY>
40.2251

>  <PUBCHEM_FEATURE_SELFOVERLAP>
25.372

>  <PUBCHEM_SHAPE_FINGERPRINT>
10130415 120 18335702792983285955
10857977 72 18130785706875878283
12382932 28 18340481278585380267
14128692 85 18261395593327133239
15076042 46 18269269058665285155
15775835 57 18342745091480445929
16945 1 18268985401892641251
17804303 29 18200320896659672110
20871998 184 18059575823434226087
22445834 79 18261390009891007435
23552423 10 18187930646028272479
2748010 2 18342741848970073847
369184 2 17775281673039707103
5084963 1 18129675105399963815
53812654 25 18270398424937711871
7364860 26 18269844279657055164

>  <PUBCHEM_SHAPE_MULTIPOLES>
229.88
4.27
1.72
0.92
0.56
0.43
-0.05
-0.93
0.59
-0.56
0.02
0.46
0.05
-0.32

>  <PUBCHEM_SHAPE_SELFOVERLAP>
486.988

>  <PUBCHEM_SHAPE_VOLUME>
129.6

>  <PUBCHEM_COORDINATE_TYPE>
2
5
10

$$$$
