64127747
 OpenBabel01182520543D

 18 18  0  0  0  0  0  0  0  0999 V2000
    2.7133   -0.4554    0.2908 O   0  0  0  0  0  0  0  0  0  0  0  0
   -0.9145    1.7465    0.0277 N   0  0  0  0  0  0  0  0  0  0  0  0
    1.4473    1.8671   -0.1151 N   0  0  0  0  0  0  0  0  0  0  0  0
   -0.7844   -1.0455   -0.0166 C   0  0  0  0  0  0  0  0  0  0  0  0
    0.3821   -0.2912   -0.0783 C   0  0  0  0  0  0  0  0  0  0  0  0
    0.2640    1.0892   -0.0532 C   0  0  0  0  0  0  0  0  0  0  0  0
   -2.0160   -0.4053    0.0674 C   0  0  0  0  0  0  0  0  0  0  0  0
   -0.7473   -2.5384   -0.0391 C   0  0  0  0  0  0  0  0  0  0  0  0
   -2.0268    0.9801    0.0860 C   0  0  0  0  0  0  0  0  0  0  0  0
    1.6823   -0.9470   -0.1696 C   0  0  0  0  0  0  0  0  0  0  0  0
   -2.9479   -0.9581    0.1163 H   0  0  0  0  0  0  0  0  0  0  0  0
   -0.4179   -2.8997   -1.0187 H   0  0  0  0  0  0  0  0  0  0  0  0
   -0.0806   -2.9249    0.7391 H   0  0  0  0  0  0  0  0  0  0  0  0
   -1.7368   -2.9691    0.1515 H   0  0  0  0  0  0  0  0  0  0  0  0
   -2.9615    1.5275    0.1502 H   0  0  0  0  0  0  0  0  0  0  0  0
    1.7164   -1.9422   -0.6415 H   0  0  0  0  0  0  0  0  0  0  0  0
    2.2923    1.5013    0.3050 H   0  0  0  0  0  0  0  0  0  0  0  0
    1.3229    2.8725   -0.1054 H   0  0  0  0  0  0  0  0  0  0  0  0
  1 10  2  0  0  0  0
  2  6  2  0  0  0  0
  2  9  1  0  0  0  0
  3  6  1  0  0  0  0
  3 17  1  0  0  0  0
  3 18  1  0  0  0  0
  4  5  2  0  0  0  0
  4  7  1  0  0  0  0
  4  8  1  0  0  0  0
  5  6  1  0  0  0  0
  5 10  1  0  0  0  0
  7  9  2  0  0  0  0
  7 11  1  0  0  0  0
  8 12  1  0  0  0  0
  8 13  1  0  0  0  0
  8 14  1  0  0  0  0
  9 15  1  0  0  0  0
 10 16  1  0  0  0  0
M  END
>  <PUBCHEM_COMPOUND_CID>
64127747

>  <PUBCHEM_CONFORMER_RMSD>
0.4

>  <PUBCHEM_CONFORMER_DIVERSEORDER>
1
2

>  <PUBCHEM_MMFF94_PARTIAL_CHARGES>
15
1 -0.57
10 0.42
11 0.15
15 0.15
16 0.06
17 0.4
18 0.4
2 -0.62
3 -0.9
4 -0.14
5 0.09
6 0.41
7 -0.15
8 0.14
9 0.16

>  <PUBCHEM_EFFECTIVE_ROTOR_COUNT>
1

>  <PUBCHEM_PHARMACOPHORE_FEATURES>
4
1 1 acceptor
1 3 donor
3 2 3 6 cation
6 2 4 5 6 7 9 rings

>  <PUBCHEM_HEAVY_ATOM_COUNT>
10

>  <PUBCHEM_ATOM_DEF_STEREO_COUNT>
0

>  <PUBCHEM_ATOM_UDEF_STEREO_COUNT>
0

>  <PUBCHEM_BOND_DEF_STEREO_COUNT>
0

>  <PUBCHEM_BOND_UDEF_STEREO_COUNT>
0

>  <PUBCHEM_ISOTOPIC_ATOM_COUNT>
0

>  <PUBCHEM_COMPONENT_COUNT>
1

>  <PUBCHEM_CACTVS_TAUTO_COUNT>
10

>  <PUBCHEM_CONFORMER_ID>
03D2830300000001

>  <PUBCHEM_MMFF94_ENERGY>
36.7801

>  <PUBCHEM_FEATURE_SELFOVERLAP>
20.297

>  <PUBCHEM_SHAPE_FINGERPRINT>
16945 1 18411140233650363790
18185500 45 17691689304193686263
193761 8 18122626316822000565
20871998 184 18272934963608379862
21040471 1 18266744567088310182
23552423 10 17973165316123258052
241688 4 17041205636768148945
2748010 2 18409450310380728237
5084963 1 18131066009184170315
66348 1 17546449977063098623

>  <PUBCHEM_SHAPE_MULTIPOLES>
189.96
2.73
2.31
0.6
0.9
0.46
0
-0.07
-0.17
-0.3
0.05
-0.01
0.03
-0.05

>  <PUBCHEM_SHAPE_SELFOVERLAP>
397.454

>  <PUBCHEM_SHAPE_VOLUME>
107.6

>  <PUBCHEM_COORDINATE_TYPE>
2
5
10

$$$$
