64128153
 OpenBabel01182520543D

 21 21  0  0  0  0  0  0  0  0999 V2000
    2.3055    0.0669    1.1543 O   0  0  0  0  0  0  0  0  0  0  0  0
   -1.8795    1.1846   -0.0313 N   0  0  0  0  0  0  0  0  0  0  0  0
    0.1447    2.4142    0.0325 N   0  0  0  0  0  0  0  0  0  0  0  0
    0.2320    0.0087    0.0312 C   0  0  0  0  0  0  0  0  0  0  0  0
   -0.4375   -1.2099    0.0091 C   0  0  0  0  0  0  0  0  0  0  0  0
   -0.5283    1.1669    0.0098 C   0  0  0  0  0  0  0  0  0  0  0  0
   -1.8272   -1.2326   -0.0331 C   0  0  0  0  0  0  0  0  0  0  0  0
    1.6899    0.0503    0.0726 C   0  0  0  0  0  0  0  0  0  0  0  0
    0.3051   -2.5056    0.0290 C   0  0  0  0  0  0  0  0  0  0  0  0
   -2.4954   -0.0189   -0.0517 C   0  0  0  0  0  0  0  0  0  0  0  0
    2.4905    0.0755   -1.2223 C   0  0  0  0  0  0  0  0  0  0  0  0
   -2.3857   -2.1622   -0.0519 H   0  0  0  0  0  0  0  0  0  0  0  0
    0.9292   -2.6040   -0.8652 H   0  0  0  0  0  0  0  0  0  0  0  0
    0.9359   -2.5751    0.9213 H   0  0  0  0  0  0  0  0  0  0  0  0
   -0.3754   -3.3641    0.0475 H   0  0  0  0  0  0  0  0  0  0  0  0
   -3.5792    0.0181   -0.0847 H   0  0  0  0  0  0  0  0  0  0  0  0
    3.0795    0.9952   -1.2624 H   0  0  0  0  0  0  0  0  0  0  0  0
    1.8213    0.0480   -2.0868 H   0  0  0  0  0  0  0  0  0  0  0  0
    3.1451   -0.7991   -1.2570 H   0  0  0  0  0  0  0  0  0  0  0  0
    1.0308    2.4789    0.5180 H   0  0  0  0  0  0  0  0  0  0  0  0
   -0.4387    3.2419    0.0106 H   0  0  0  0  0  0  0  0  0  0  0  0
  1  8  2  0  0  0  0
  2  6  2  0  0  0  0
  2 10  1  0  0  0  0
  3  6  1  0  0  0  0
  3 20  1  0  0  0  0
  3 21  1  0  0  0  0
  4  5  2  0  0  0  0
  4  6  1  0  0  0  0
  4  8  1  0  0  0  0
  5  7  1  0  0  0  0
  5  9  1  0  0  0  0
  7 10  2  0  0  0  0
  7 12  1  0  0  0  0
  8 11  1  0  0  0  0
  9 13  1  0  0  0  0
  9 14  1  0  0  0  0
  9 15  1  0  0  0  0
 10 16  1  0  0  0  0
 11 17  1  0  0  0  0
 11 18  1  0  0  0  0
 11 19  1  0  0  0  0
M  END
>  <PUBCHEM_COMPOUND_CID>
64128153

>  <PUBCHEM_CONFORMER_RMSD>
0.4

>  <PUBCHEM_CONFORMER_DIVERSEORDER>
1
2
3

>  <PUBCHEM_MMFF94_PARTIAL_CHARGES>
15
1 -0.57
10 0.16
11 0.06
12 0.15
16 0.15
2 -0.62
20 0.4
21 0.4
3 -0.9
4 0.09
5 -0.14
6 0.41
7 -0.15
8 0.42
9 0.14

>  <PUBCHEM_EFFECTIVE_ROTOR_COUNT>
1

>  <PUBCHEM_PHARMACOPHORE_FEATURES>
4
1 1 acceptor
1 3 donor
3 2 3 6 cation
6 2 4 5 6 7 10 rings

>  <PUBCHEM_HEAVY_ATOM_COUNT>
11

>  <PUBCHEM_ATOM_DEF_STEREO_COUNT>
0

>  <PUBCHEM_ATOM_UDEF_STEREO_COUNT>
0

>  <PUBCHEM_BOND_DEF_STEREO_COUNT>
0

>  <PUBCHEM_BOND_UDEF_STEREO_COUNT>
0

>  <PUBCHEM_ISOTOPIC_ATOM_COUNT>
0

>  <PUBCHEM_COMPONENT_COUNT>
1

>  <PUBCHEM_CACTVS_TAUTO_COUNT>
22

>  <PUBCHEM_CONFORMER_ID>
03D2849900000001

>  <PUBCHEM_MMFF94_ENERGY>
41.2853

>  <PUBCHEM_FEATURE_SELFOVERLAP>
20.297

>  <PUBCHEM_SHAPE_FINGERPRINT>
12423570 1 15157758839853566214
12524768 44 17908708680169699791
15310529 11 16732979864170754877
16945 1 18410574002711180439
193761 8 17762338011646030275
20645464 45 17988352763032279274
21040471 1 18338515222898288427
22802520 49 18128282033016170854
23552423 10 18117565015591388007
23559900 14 18272097042329229630
241688 4 18269004093500681803
2748010 2 18049156967350349655
29004967 10 16271929319922870314
5084963 1 17987810720742446675

>  <PUBCHEM_SHAPE_MULTIPOLES>
210.54
3.11
2.16
0.83
0.41
0.22
0.02
-0.12
0.3
-0.33
-0.05
0.55
0.02
0

>  <PUBCHEM_SHAPE_SELFOVERLAP>
437.58

>  <PUBCHEM_SHAPE_VOLUME>
121

>  <PUBCHEM_COORDINATE_TYPE>
2
5
10

$$$$
