643394
 OpenBabel01182520543D

 19 19  0  0  0  0  0  0  0  0999 V2000
    2.7875    0.7148    0.0111 O   0  0  0  0  0  0  0  0  0  0  0  0
   -1.5040   -1.3594    0.0014 N   0  0  0  0  0  0  0  0  0  0  0  0
    0.6747    2.2393   -0.0041 N   0  0  0  0  0  0  0  0  0  0  0  0
   -3.5279   -0.1028    0.0023 N   0  0  0  0  0  0  0  0  0  0  0  0
    2.6284   -1.5728   -0.0033 N   0  0  0  0  0  0  0  0  0  0  0  0
    0.6165   -0.1985   -0.0019 C   0  0  0  0  0  0  0  0  0  0  0  0
   -0.0447    1.0246   -0.0022 C   0  0  0  0  0  0  0  0  0  0  0  0
   -1.4349    1.0570   -0.0008 C   0  0  0  0  0  0  0  0  0  0  0  0
   -2.1118   -0.1519    0.0009 C   0  0  0  0  0  0  0  0  0  0  0  0
   -0.1522   -1.3513    0.0002 C   0  0  0  0  0  0  0  0  0  0  0  0
    2.0686   -0.2990   -0.0036 C   0  0  0  0  0  0  0  0  0  0  0  0
   -1.9703    2.0021   -0.0002 H   0  0  0  0  0  0  0  0  0  0  0  0
    0.2487   -2.3563    0.0014 H   0  0  0  0  0  0  0  0  0  0  0  0
    1.6844    2.2499   -0.0068 H   0  0  0  0  0  0  0  0  0  0  0  0
    0.1717    3.1171   -0.0044 H   0  0  0  0  0  0  0  0  0  0  0  0
   -4.0180   -0.9888   -0.0025 H   0  0  0  0  0  0  0  0  0  0  0  0
   -3.9828    0.6988   -0.4168 H   0  0  0  0  0  0  0  0  0  0  0  0
    2.1202   -2.4475   -0.0108 H   0  0  0  0  0  0  0  0  0  0  0  0
    3.6390   -1.6698    0.0025 H   0  0  0  0  0  0  0  0  0  0  0  0
  1 11  2  0  0  0  0
  2  9  2  0  0  0  0
  2 10  1  0  0  0  0
  3  7  1  0  0  0  0
  3 14  1  0  0  0  0
  3 15  1  0  0  0  0
  4  9  1  0  0  0  0
  4 16  1  0  0  0  0
  4 17  1  0  0  0  0
  5 11  1  0  0  0  0
  5 18  1  0  0  0  0
  5 19  1  0  0  0  0
  6  7  1  0  0  0  0
  6 10  2  0  0  0  0
  6 11  1  0  0  0  0
  7  8  2  0  0  0  0
  8  9  1  0  0  0  0
  8 12  1  0  0  0  0
 10 13  1  0  0  0  0
M  END
>  <PUBCHEM_COMPOUND_CID>
643394

>  <PUBCHEM_CONFORMER_RMSD>
0.4

>  <PUBCHEM_CONFORMER_DIVERSEORDER>
3
1
2

>  <PUBCHEM_MMFF94_PARTIAL_CHARGES>
19
1 -0.57
10 0.16
11 0.54
12 0.15
13 0.15
14 0.4
15 0.4
16 0.4
17 0.4
18 0.37
19 0.37
2 -0.62
3 -0.9
4 -0.9
5 -0.8
6 0.09
7 0.1
8 -0.15
9 0.41

>  <PUBCHEM_EFFECTIVE_ROTOR_COUNT>
1

>  <PUBCHEM_PHARMACOPHORE_FEATURES>
7
1 1 acceptor
1 3 cation
1 3 donor
1 4 donor
1 5 donor
3 2 4 9 cation
6 2 6 7 8 9 10 rings

>  <PUBCHEM_HEAVY_ATOM_COUNT>
11

>  <PUBCHEM_ATOM_DEF_STEREO_COUNT>
0

>  <PUBCHEM_ATOM_UDEF_STEREO_COUNT>
0

>  <PUBCHEM_BOND_DEF_STEREO_COUNT>
0

>  <PUBCHEM_BOND_UDEF_STEREO_COUNT>
0

>  <PUBCHEM_ISOTOPIC_ATOM_COUNT>
0

>  <PUBCHEM_COMPONENT_COUNT>
1

>  <PUBCHEM_CACTVS_TAUTO_COUNT>
21

>  <PUBCHEM_CONFORMER_ID>
0009D14200000003

>  <PUBCHEM_MMFF94_ENERGY>
51.5766

>  <PUBCHEM_FEATURE_SELFOVERLAP>
35.522

>  <PUBCHEM_SHAPE_FINGERPRINT>
10219947 1 18413673495904082343
12032990 46 18338242574296006171
12524768 44 18342461417565102854
14325111 11 18410856534070523813
16945 1 18338517550791694341
193761 8 17834114530070764231
20201158 50 18410009961551300802
21040471 1 18338516331020923812
23402655 69 18194663897288763165
23552423 10 18119528983855275813
241688 4 18266460897441398800
2748010 2 18266737987135031372
29004967 10 18408889559244652330
369184 2 18411979139558128354
5084963 1 18200590276839418762
528886 8 18411695525671815203
53812653 166 18270676597000442304

>  <PUBCHEM_SHAPE_MULTIPOLES>
200.58
4.01
1.76
0.58
0.58
0.41
0
-0.72
-0.01
-0.46
0
0.01
0
0

>  <PUBCHEM_SHAPE_SELFOVERLAP>
423.405

>  <PUBCHEM_SHAPE_VOLUME>
111.5

>  <PUBCHEM_COORDINATE_TYPE>
2
5
10

$$$$
