65529981
 OpenBabel01182520543D

 33 34  0  0  0  0  0  0  0  0999 V2000
   -4.2834   -1.9679   -0.5835 F   0  0  0  0  0  0  0  0  0  0  0  0
   -3.7355   -1.1843    1.3790 F   0  0  0  0  0  0  0  0  0  0  0  0
   -5.1598   -0.1000    0.1295 F   0  0  0  0  0  0  0  0  0  0  0  0
    1.1006    2.5837    0.8423 O   0  0  0  0  0  0  0  0  0  0  0  0
   -0.2584    1.1171   -0.3700 N   0  0  0  0  0  0  0  0  0  0  0  0
    4.0762   -0.1129   -0.9780 N   0  0  0  0  0  0  0  0  0  0  0  0
    5.3727   -1.8932   -0.0690 N   0  0  0  0  0  0  0  0  0  0  0  0
   -2.8972   -0.0679   -0.5150 C   0  0  0  0  0  0  0  0  0  0  0  0
   -1.6208   -0.9227   -0.5707 C   0  0  0  0  0  0  0  0  0  0  0  0
   -2.6339    1.2370    0.2535 C   0  0  0  0  0  0  0  0  0  0  0  0
   -0.4476   -0.1232   -1.1327 C   0  0  0  0  0  0  0  0  0  0  0  0
   -1.4330    1.9870   -0.3197 C   0  0  0  0  0  0  0  0  0  0  0  0
   -4.0464   -0.8487    0.1176 C   0  0  0  0  0  0  0  0  0  0  0  0
    0.9300    1.5244    0.2405 C   0  0  0  0  0  0  0  0  0  0  0  0
    2.0849    0.6197    0.1808 C   0  0  0  0  0  0  0  0  0  0  0  0
    2.3010   -0.3335    1.1699 C   0  0  0  0  0  0  0  0  0  0  0  0
    2.9936    0.6887   -0.8628 C   0  0  0  0  0  0  0  0  0  0  0  0
    3.4037   -1.1764    1.0863 C   0  0  0  0  0  0  0  0  0  0  0  0
    4.2535   -1.0270    0.0021 C   0  0  0  0  0  0  0  0  0  0  0  0
   -3.1873    0.1884   -1.5426 H   0  0  0  0  0  0  0  0  0  0  0  0
   -1.7873   -1.8108   -1.1912 H   0  0  0  0  0  0  0  0  0  0  0  0
   -1.3657   -1.2748    0.4371 H   0  0  0  0  0  0  0  0  0  0  0  0
   -2.4428    1.0108    1.3105 H   0  0  0  0  0  0  0  0  0  0  0  0
   -3.5184    1.8832    0.2168 H   0  0  0  0  0  0  0  0  0  0  0  0
   -0.6403    0.1609   -2.1741 H   0  0  0  0  0  0  0  0  0  0  0  0
    0.4500   -0.7447   -1.1285 H   0  0  0  0  0  0  0  0  0  0  0  0
   -1.2316    2.8784    0.2828 H   0  0  0  0  0  0  0  0  0  0  0  0
   -1.6402    2.3214   -1.3431 H   0  0  0  0  0  0  0  0  0  0  0  0
    1.6159   -0.4275    2.0081 H   0  0  0  0  0  0  0  0  0  0  0  0
    2.8775    1.4118   -1.6644 H   0  0  0  0  0  0  0  0  0  0  0  0
    3.5781   -1.9231    1.8540 H   0  0  0  0  0  0  0  0  0  0  0  0
    5.7582   -2.2542    0.7949 H   0  0  0  0  0  0  0  0  0  0  0  0
    5.9943   -1.7763   -0.8596 H   0  0  0  0  0  0  0  0  0  0  0  0
  1 13  1  0  0  0  0
  2 13  1  0  0  0  0
  3 13  1  0  0  0  0
  4 14  2  0  0  0  0
  5 11  1  0  0  0  0
  5 12  1  0  0  0  0
  5 14  1  0  0  0  0
  6 17  1  0  0  0  0
  6 19  2  0  0  0  0
  7 19  1  0  0  0  0
  7 32  1  0  0  0  0
  7 33  1  0  0  0  0
  8  9  1  0  0  0  0
  8 10  1  0  0  0  0
  8 13  1  0  0  0  0
  8 20  1  0  0  0  0
  9 11  1  0  0  0  0
  9 21  1  0  0  0  0
  9 22  1  0  0  0  0
 10 12  1  0  0  0  0
 10 23  1  0  0  0  0
 10 24  1  0  0  0  0
 11 25  1  0  0  0  0
 11 26  1  0  0  0  0
 12 27  1  0  0  0  0
 12 28  1  0  0  0  0
 14 15  1  0  0  0  0
 15 16  1  0  0  0  0
 15 17  2  0  0  0  0
 16 18  2  0  0  0  0
 16 29  1  0  0  0  0
 17 30  1  0  0  0  0
 18 19  1  0  0  0  0
 18 31  1  0  0  0  0
M  END
>  <PUBCHEM_COMPOUND_CID>
65529981

>  <PUBCHEM_CONFORMER_RMSD>
0.6

>  <PUBCHEM_CONFORMER_DIVERSEORDER>
1
3
9
22
5
16
7
10
6
4
17
2
8
11
15
21
18
12
14
23
20
24
13
19

>  <PUBCHEM_MMFF94_PARTIAL_CHARGES>
21
1 -0.34
11 0.3
12 0.3
13 1.02
14 0.54
15 0.09
16 -0.15
17 0.16
18 -0.15
19 0.41
2 -0.34
29 0.15
3 -0.34
30 0.15
31 0.15
32 0.4
33 0.4
4 -0.57
5 -0.66
6 -0.62
7 -0.9

>  <PUBCHEM_EFFECTIVE_ROTOR_COUNT>
4.2

>  <PUBCHEM_PHARMACOPHORE_FEATURES>
5
1 4 acceptor
1 7 donor
3 6 7 19 cation
6 5 8 9 10 11 12 rings
6 6 15 16 17 18 19 rings

>  <PUBCHEM_HEAVY_ATOM_COUNT>
19

>  <PUBCHEM_ATOM_DEF_STEREO_COUNT>
0

>  <PUBCHEM_ATOM_UDEF_STEREO_COUNT>
0

>  <PUBCHEM_BOND_DEF_STEREO_COUNT>
0

>  <PUBCHEM_BOND_UDEF_STEREO_COUNT>
0

>  <PUBCHEM_ISOTOPIC_ATOM_COUNT>
0

>  <PUBCHEM_COMPONENT_COUNT>
1

>  <PUBCHEM_CACTVS_TAUTO_COUNT>
4

>  <PUBCHEM_CONFORMER_ID>
03E7E87D00000001

>  <PUBCHEM_MMFF94_ENERGY>
51.8106

>  <PUBCHEM_FEATURE_SELFOVERLAP>
25.372

>  <PUBCHEM_SHAPE_FINGERPRINT>
10498660 4 7853566942016614310
11046707 91 18410855434400711988
11543360 7 16443348688698778124
11578080 2 18042660889503767188
12236239 1 18187367580669793004
12553582 1 18339911680196768374
12596602 18 17060333050235775554
12633257 1 18060149755766540875
12714826 92 18337102376226835492
128620 24 12179842801436538275
12892183 10 15554456167002782742
13103583 49 18195836092204633619
13533116 47 18125998515343978739
13675066 3 15698007331372817845
14123255 352 10087635988010571474
14252887 29 18060700585459220698
14576447 43 17895474731360052746
15061688 2 9367343743243147268
15188451 53 16773218696130212663
15239191 94 18408881854046975415
15375462 189 18409726266345413112
15885798 251 18343301461444067416
16752209 62 18265596741663500469
17349148 13 17632294644529842399
17804303 29 18413388735256453741
18915474 69 18186524306368883582
193927 3 18335148557365793686
19422 9 18334017168369336660
200 152 17313103025498127004
20028762 73 17846211232873617743
20261772 1 18131346431783468190
20281475 54 18410292523075726605
20291156 8 18409163316112559744
20645477 56 9727628427756451269
20645477 70 18265884925347420661
20871999 31 16950558848752868125
21267235 1 18410017602725550758
21713013 43 17458059365464904278
2215653 11 18187637029812142287
22646028 28 18334292054670828482
22950370 63 18409454686656860782
235170 7 15719384045009361519
23559900 14 18187077394898473941
2871803 45 17894344484186521338
312423 11 18335150786279909572
328317 168 7925910374369781386
351380 3 18334296470092719003
4028521 119 11314310529211112846
4325135 7 18334577958660927556
465052 167 18340774835690398295
4921388 177 15502386646723354553
5104073 3 18272936033123568521
58051976 100 18114456743406381124
7364860 26 18128814338446993816
76465 3 18341607157344472983
7970288 3 18412259540925812990
83771 10 18412262826817568780
94968 8 18260545653959615016
960060 61 17967809496258207327

>  <PUBCHEM_SHAPE_MULTIPOLES>
348.38
9.97
2.03
1.06
0.29
0.56
-0.09
-6.48
-0.19
0.11
-0.25
-0.27
-0.11
-0.13

>  <PUBCHEM_SHAPE_SELFOVERLAP>
736.181

>  <PUBCHEM_SHAPE_VOLUME>
195.1

>  <PUBCHEM_COORDINATE_TYPE>
2
5
10

$$$$
