65531901
 OpenBabel01182520543D

 29 29  0  0  0  0  0  0  0  0999 V2000
   -4.2661    0.2551   -1.2293 F   0  0  0  0  0  0  0  0  0  0  0  0
   -4.7061   -1.3824    0.1478 F   0  0  0  0  0  0  0  0  0  0  0  0
   -4.5696    0.6635    0.8890 F   0  0  0  0  0  0  0  0  0  0  0  0
    0.2377    0.2503   -1.8482 O   0  0  0  0  0  0  0  0  0  0  0  0
   -0.3545    0.7002    0.3905 N   0  0  0  0  0  0  0  0  0  0  0  0
    3.7766   -1.2435    0.3507 N   0  0  0  0  0  0  0  0  0  0  0  0
    1.6088   -2.1562    0.0538 N   0  0  0  0  0  0  0  0  0  0  0  0
   -1.7590    0.8947    0.1604 C   0  0  0  0  0  0  0  0  0  0  0  0
   -2.5563   -0.3986    0.2829 C   0  0  0  0  0  0  0  0  0  0  0  0
    0.5350    0.3883   -0.6621 C   0  0  0  0  0  0  0  0  0  0  0  0
   -4.0366   -0.2178    0.0132 C   0  0  0  0  0  0  0  0  0  0  0  0
    0.1085    0.8422    1.7755 C   0  0  0  0  0  0  0  0  0  0  0  0
    1.9532    0.1955   -0.3198 C   0  0  0  0  0  0  0  0  0  0  0  0
    2.4797   -1.0378    0.0289 C   0  0  0  0  0  0  0  0  0  0  0  0
    2.8130    1.2882   -0.3395 C   0  0  0  0  0  0  0  0  0  0  0  0
    4.1539    1.1164   -0.0145 C   0  0  0  0  0  0  0  0  0  0  0  0
    4.5820   -0.1581    0.3206 C   0  0  0  0  0  0  0  0  0  0  0  0
   -2.1357    1.6541    0.8554 H   0  0  0  0  0  0  0  0  0  0  0  0
   -1.8897    1.2955   -0.8520 H   0  0  0  0  0  0  0  0  0  0  0  0
   -2.1576   -1.1445   -0.4153 H   0  0  0  0  0  0  0  0  0  0  0  0
   -2.4287   -0.8189    1.2874 H   0  0  0  0  0  0  0  0  0  0  0  0
   -0.0785    1.8728    2.0932 H   0  0  0  0  0  0  0  0  0  0  0  0
    1.1649    0.6243    1.9244 H   0  0  0  0  0  0  0  0  0  0  0  0
   -0.4717    0.1631    2.4074 H   0  0  0  0  0  0  0  0  0  0  0  0
    2.4495    2.2772   -0.6053 H   0  0  0  0  0  0  0  0  0  0  0  0
    4.8423    1.9537   -0.0228 H   0  0  0  0  0  0  0  0  0  0  0  0
    5.6183   -0.3450    0.5822 H   0  0  0  0  0  0  0  0  0  0  0  0
    0.6352   -2.0065    0.2885 H   0  0  0  0  0  0  0  0  0  0  0  0
    2.0220   -3.0449    0.3093 H   0  0  0  0  0  0  0  0  0  0  0  0
  1 11  1  0  0  0  0
  2 11  1  0  0  0  0
  3 11  1  0  0  0  0
  4 10  2  0  0  0  0
  5  8  1  0  0  0  0
  5 10  1  0  0  0  0
  5 12  1  0  0  0  0
  6 14  1  0  0  0  0
  6 17  2  0  0  0  0
  7 14  1  0  0  0  0
  7 28  1  0  0  0  0
  7 29  1  0  0  0  0
  8  9  1  0  0  0  0
  8 18  1  0  0  0  0
  8 19  1  0  0  0  0
  9 11  1  0  0  0  0
  9 20  1  0  0  0  0
  9 21  1  0  0  0  0
 10 13  1  0  0  0  0
 12 22  1  0  0  0  0
 12 23  1  0  0  0  0
 12 24  1  0  0  0  0
 13 14  2  0  0  0  0
 13 15  1  0  0  0  0
 15 16  2  0  0  0  0
 15 25  1  0  0  0  0
 16 17  1  0  0  0  0
 16 26  1  0  0  0  0
 17 27  1  0  0  0  0
M  END
>  <PUBCHEM_COMPOUND_CID>
65531901

>  <PUBCHEM_CONFORMER_RMSD>
0.6

>  <PUBCHEM_CONFORMER_DIVERSEORDER>
1
14
58
47
62
9
6
66
21
57
32
31
5
56
27
24
22
37
8
19
59
13
7
65
64
49
18
48
23
29
25
71
51
50
41
55
16
4
67
2
52
53
12
69
15
54
40
46
43
34
35
60
72
28
63
45
61
70
30
26
36
33
38
39
42
44
3
20
68
11
17
10

>  <PUBCHEM_MMFF94_PARTIAL_CHARGES>
21
1 -0.34
10 0.54
11 1.02
12 0.3
13 0.09
14 0.41
15 -0.15
16 -0.15
17 0.16
2 -0.34
25 0.15
26 0.15
27 0.15
28 0.4
29 0.4
3 -0.34
4 -0.57
5 -0.66
6 -0.62
7 -0.9
8 0.3

>  <PUBCHEM_EFFECTIVE_ROTOR_COUNT>
5

>  <PUBCHEM_PHARMACOPHORE_FEATURES>
5
1 4 acceptor
1 6 acceptor
1 7 cation
1 7 donor
6 6 13 14 15 16 17 rings

>  <PUBCHEM_HEAVY_ATOM_COUNT>
17

>  <PUBCHEM_ATOM_DEF_STEREO_COUNT>
0

>  <PUBCHEM_ATOM_UDEF_STEREO_COUNT>
0

>  <PUBCHEM_BOND_DEF_STEREO_COUNT>
0

>  <PUBCHEM_BOND_UDEF_STEREO_COUNT>
0

>  <PUBCHEM_ISOTOPIC_ATOM_COUNT>
0

>  <PUBCHEM_COMPONENT_COUNT>
1

>  <PUBCHEM_CACTVS_TAUTO_COUNT>
4

>  <PUBCHEM_CONFORMER_ID>
03E7EFFD00000001

>  <PUBCHEM_MMFF94_ENERGY>
50.5091

>  <PUBCHEM_FEATURE_SELFOVERLAP>
25.372

>  <PUBCHEM_SHAPE_FINGERPRINT>
11370993 70 18333447651168437123
11401426 45 15936406762390413732
11806522 49 18334013903946096386
12236239 1 17989207049487059804
13167823 11 18411700989028607543
13705890 14 18040438801782275985
14251717 144 18335139782752668386
14251764 18 17989213642873665937
14252887 29 17676491626962456648
14787075 74 18059569243565122194
14943859 89 8934998170277965100
15207287 21 17168146715596329314
15375358 24 17821730541570494619
15375462 189 17988918976865634523
15848700 24 16515400776873508348
17834072 14 17967536782782541722
18186145 218 15068626015183452773
19050596 39 18272374152648560881
200 152 18342175557284273744
20279233 1 17458070364907551051
20645477 70 18334576815334807642
21503847 285 11671784866351939147
22485316 2 18411699889817465249
23402539 116 17095516309864105021
23557571 272 17240476970921403717
23559900 14 18335419084491823152
26918003 58 18408321081547008283
3286 77 18187360992137219700
33824 294 18259983760842858042
4990 188 16660363675244614865
602551 16 15697705017140999662
69090 78 18040434416578585994
7495541 125 18129381673603456081
76465 3 17459457867637120842
9709674 26 18335710424713351355

>  <PUBCHEM_SHAPE_MULTIPOLES>
307.22
9.55
1.41
1.12
6.83
0.52
-0.04
0.93
0.37
-0.77
0.15
0.32
-0.26
-0.28

>  <PUBCHEM_SHAPE_SELFOVERLAP>
633.841

>  <PUBCHEM_SHAPE_VOLUME>
177.4

>  <PUBCHEM_COORDINATE_TYPE>
2
5
10

$$$$
