66887686
 OpenBabel01182520543D

 30 31  0  0  0  0  0  0  0  0999 V2000
   -1.1302    2.6048    0.0082 O   0  0  0  0  0  0  0  0  0  0  0  0
    0.6461    1.2418   -0.4422 N   0  0  0  0  0  0  0  0  0  0  0  0
    5.7925   -0.2553    1.2099 N   0  0  0  0  0  0  0  0  0  0  0  0
   -3.6902   -0.7347    0.4120 N   0  0  0  0  0  0  0  0  0  0  0  0
   -3.5036    1.5997    0.4796 N   0  0  0  0  0  0  0  0  0  0  0  0
    2.6666   -0.0357   -0.9428 C   0  0  0  0  0  0  0  0  0  0  0  0
    1.2049   -0.0066   -0.6224 C   0  0  0  0  0  0  0  0  0  0  0  0
    3.5101   -0.1112    0.3269 C   0  0  0  0  0  0  0  0  0  0  0  0
   -0.9638   -1.0047   -0.1963 C   0  0  0  0  0  0  0  0  0  0  0  0
    0.4603   -1.1181   -0.5123 C   0  0  0  0  0  0  0  0  0  0  0  0
   -1.5330    0.2586   -0.0129 C   0  0  0  0  0  0  0  0  0  0  0  0
    4.9991   -0.1749   -0.0108 C   0  0  0  0  0  0  0  0  0  0  0  0
   -0.6891    1.4698   -0.1401 C   0  0  0  0  0  0  0  0  0  0  0  0
   -2.8854    0.3441    0.2867 C   0  0  0  0  0  0  0  0  0  0  0  0
   -1.7716   -2.1334   -0.0727 C   0  0  0  0  0  0  0  0  0  0  0  0
   -3.1126   -1.9441    0.2293 C   0  0  0  0  0  0  0  0  0  0  0  0
    2.9456    0.8447   -1.5358 H   0  0  0  0  0  0  0  0  0  0  0  0
    2.8869   -0.9041   -1.5778 H   0  0  0  0  0  0  0  0  0  0  0  0
    3.3108    0.7650    0.9578 H   0  0  0  0  0  0  0  0  0  0  0  0
    3.2285   -0.9969    0.9117 H   0  0  0  0  0  0  0  0  0  0  0  0
    0.8870   -2.1057   -0.6504 H   0  0  0  0  0  0  0  0  0  0  0  0
    1.2567    2.0487   -0.5351 H   0  0  0  0  0  0  0  0  0  0  0  0
    5.2974    0.7129   -0.5793 H   0  0  0  0  0  0  0  0  0  0  0  0
    5.2084   -1.0539   -0.6299 H   0  0  0  0  0  0  0  0  0  0  0  0
   -1.3781   -3.1358   -0.2055 H   0  0  0  0  0  0  0  0  0  0  0  0
   -3.7805   -2.7929    0.3355 H   0  0  0  0  0  0  0  0  0  0  0  0
    5.6278    0.5722    1.7817 H   0  0  0  0  0  0  0  0  0  0  0  0
    6.7830   -0.2446    0.9705 H   0  0  0  0  0  0  0  0  0  0  0  0
   -2.9530    2.3559    0.8662 H   0  0  0  0  0  0  0  0  0  0  0  0
   -4.4946    1.5896    0.6885 H   0  0  0  0  0  0  0  0  0  0  0  0
  1 13  2  0  0  0  0
  2  7  1  0  0  0  0
  2 13  1  0  0  0  0
  2 22  1  0  0  0  0
  3 12  1  0  0  0  0
  3 27  1  0  0  0  0
  3 28  1  0  0  0  0
  4 14  2  0  0  0  0
  4 16  1  0  0  0  0
  5 14  1  0  0  0  0
  5 29  1  0  0  0  0
  5 30  1  0  0  0  0
  6  7  1  0  0  0  0
  6  8  1  0  0  0  0
  6 17  1  0  0  0  0
  6 18  1  0  0  0  0
  7 10  2  0  0  0  0
  8 12  1  0  0  0  0
  8 19  1  0  0  0  0
  8 20  1  0  0  0  0
  9 10  1  0  0  0  0
  9 11  2  0  0  0  0
  9 15  1  0  0  0  0
 10 21  1  0  0  0  0
 11 13  1  0  0  0  0
 11 14  1  0  0  0  0
 12 23  1  0  0  0  0
 12 24  1  0  0  0  0
 15 16  2  0  0  0  0
 15 25  1  0  0  0  0
 16 26  1  0  0  0  0
M  END
>  <PUBCHEM_COMPOUND_CID>
66887686

>  <PUBCHEM_CONFORMER_RMSD>
0.6

>  <PUBCHEM_CONFORMER_DIVERSEORDER>
2
9
5
3
7
8
1
6
4

>  <PUBCHEM_MMFF94_PARTIAL_CHARGES>
23
1 -0.57
10 -0.18
11 0.09
12 0.27
13 0.54
14 0.41
15 -0.15
16 0.16
2 -0.54
21 0.15
22 0.37
25 0.15
26 0.15
27 0.36
28 0.36
29 0.4
3 -0.99
30 0.4
4 -0.62
5 -0.9
6 0.14
7 -0.03
9 0.03

>  <PUBCHEM_EFFECTIVE_ROTOR_COUNT>
3

>  <PUBCHEM_PHARMACOPHORE_FEATURES>
8
1 1 acceptor
1 2 donor
1 3 cation
1 3 donor
1 5 donor
3 4 5 14 cation
6 2 7 9 10 11 13 rings
6 4 9 11 14 15 16 rings

>  <PUBCHEM_HEAVY_ATOM_COUNT>
16

>  <PUBCHEM_ATOM_DEF_STEREO_COUNT>
0

>  <PUBCHEM_ATOM_UDEF_STEREO_COUNT>
0

>  <PUBCHEM_BOND_DEF_STEREO_COUNT>
0

>  <PUBCHEM_BOND_UDEF_STEREO_COUNT>
0

>  <PUBCHEM_ISOTOPIC_ATOM_COUNT>
0

>  <PUBCHEM_COMPONENT_COUNT>
1

>  <PUBCHEM_CACTVS_TAUTO_COUNT>
38

>  <PUBCHEM_CONFORMER_ID>
03FCA00600000002

>  <PUBCHEM_MMFF94_ENERGY>
39.7866

>  <PUBCHEM_FEATURE_SELFOVERLAP>
40.622

>  <PUBCHEM_SHAPE_FINGERPRINT>
10062212 137 18261113001685552527
10319926 262 18270103636264198962
10465860 250 18408602599658092462
11132069 177 18341903964969165476
12119455 92 17132112420839780854
12236239 1 17748827431796811814
12251169 10 18409449172420025668
12382932 28 18341623594083912347
124424 183 18187925122890422295
13140716 1 18339369676830504729
13214271 11 18272931622133833975
13862211 1 18338801234131227071
14420673 8 17977663105462652866
15219456 202 17917438575225069246
15375462 189 18040435511921847090
16945 1 18339377287644207709
17804303 29 18341618131001686332
17862501 102 18113333107606237962
1813 80 17022910000091175046
200 152 15864066568632167006
20510252 161 18200597977737035520
21267235 1 18336559299087118583
21501502 16 18194131930390384813
21637258 2 16009038340637842459
21650355 55 18410572924299829801
2297311 6 18270977794978321900
2334 1 18123762112486636613
23366157 5 17826517957259423540
23402539 116 18343576369837802039
23463225 33 18336554918225251469
23557571 272 18129964328771977086
23559900 14 18199485281182101598
2748010 2 18268999854826935637
34934 24 18337388245339867391
43471831 8 18261956245800845826
5104073 3 18338243785302516256
573450 72 18333447651547952898
58807428 26 18265344923357172515
90316 7 18260829267624875988

>  <PUBCHEM_SHAPE_MULTIPOLES>
303.48
8.54
2.03
0.82
12.66
0.44
0.02
-1.39
2.97
-2.32
0.02
0.61
-0.05
-0.17

>  <PUBCHEM_SHAPE_SELFOVERLAP>
646.187

>  <PUBCHEM_SHAPE_VOLUME>
168.3

>  <PUBCHEM_COORDINATE_TYPE>
2
5
10

$$$$
