67119618
 OpenBabel01182520543D

 32 32  0  0  0  0  0  0  0  0999 V2000
    4.8006    1.6017    0.0212 O   0  0  0  0  0  0  0  0  0  0  0  0
   -1.0276   -0.8495   -0.0413 N   0  0  0  0  0  0  0  0  0  0  0  0
    1.2212   -1.5499    0.0088 N   0  0  0  0  0  0  0  0  0  0  0  0
    5.2870   -0.6389    0.0568 N   0  0  0  0  0  0  0  0  0  0  0  0
   -3.4499   -0.5233   -0.0225 C   0  0  0  0  0  0  0  0  0  0  0  0
   -4.5971    0.4917   -0.0107 C   0  0  0  0  0  0  0  0  0  0  0  0
   -2.0766    0.1408   -0.0776 C   0  0  0  0  0  0  0  0  0  0  0  0
   -5.9555   -0.2086    0.0331 C   0  0  0  0  0  0  0  0  0  0  0  0
   -7.0978    0.7936    0.0859 C   0  0  0  0  0  0  0  0  0  0  0  0
    0.3233   -0.5397   -0.0255 C   0  0  0  0  0  0  0  0  0  0  0  0
    0.6666    0.8025   -0.0462 C   0  0  0  0  0  0  0  0  0  0  0  0
    2.0182    1.1292   -0.0308 C   0  0  0  0  0  0  0  0  0  0  0  0
    2.9716    0.1177    0.0044 C   0  0  0  0  0  0  0  0  0  0  0  0
    2.5253   -1.1939    0.0229 C   0  0  0  0  0  0  0  0  0  0  0  0
    4.3907    0.4265    0.0213 C   0  0  0  0  0  0  0  0  0  0  0  0
   -3.5139   -1.1541    0.8735 H   0  0  0  0  0  0  0  0  0  0  0  0
   -3.5635   -1.1947   -0.8834 H   0  0  0  0  0  0  0  0  0  0  0  0
   -4.5373    1.1246   -0.9043 H   0  0  0  0  0  0  0  0  0  0  0  0
   -4.4929    1.1501    0.8602 H   0  0  0  0  0  0  0  0  0  0  0  0
   -2.0085    0.7344   -0.9973 H   0  0  0  0  0  0  0  0  0  0  0  0
   -1.9902    0.8172    0.7817 H   0  0  0  0  0  0  0  0  0  0  0  0
   -6.0106   -0.8605    0.9128 H   0  0  0  0  0  0  0  0  0  0  0  0
   -6.0747   -0.8456   -0.8510 H   0  0  0  0  0  0  0  0  0  0  0  0
   -1.2703   -1.8337   -0.0292 H   0  0  0  0  0  0  0  0  0  0  0  0
   -7.0905    1.4431   -0.7953 H   0  0  0  0  0  0  0  0  0  0  0  0
   -8.0592    0.2714    0.1152 H   0  0  0  0  0  0  0  0  0  0  0  0
   -7.0261    1.4237    0.9782 H   0  0  0  0  0  0  0  0  0  0  0  0
   -0.0490    1.6158   -0.0767 H   0  0  0  0  0  0  0  0  0  0  0  0
    2.3061    2.1768   -0.0475 H   0  0  0  0  0  0  0  0  0  0  0  0
    3.1788   -2.0566    0.0509 H   0  0  0  0  0  0  0  0  0  0  0  0
    6.2846   -0.4513    0.0761 H   0  0  0  0  0  0  0  0  0  0  0  0
    5.0360   -1.6193    0.0640 H   0  0  0  0  0  0  0  0  0  0  0  0
  1 15  2  0  0  0  0
  2  7  1  0  0  0  0
  2 10  1  0  0  0  0
  2 24  1  0  0  0  0
  3 10  2  0  0  0  0
  3 14  1  0  0  0  0
  4 15  1  0  0  0  0
  4 31  1  0  0  0  0
  4 32  1  0  0  0  0
  5  6  1  0  0  0  0
  5  7  1  0  0  0  0
  5 16  1  0  0  0  0
  5 17  1  0  0  0  0
  6  8  1  0  0  0  0
  6 18  1  0  0  0  0
  6 19  1  0  0  0  0
  7 20  1  0  0  0  0
  7 21  1  0  0  0  0
  8  9  1  0  0  0  0
  8 22  1  0  0  0  0
  8 23  1  0  0  0  0
  9 25  1  0  0  0  0
  9 26  1  0  0  0  0
  9 27  1  0  0  0  0
 10 11  1  0  0  0  0
 11 12  2  0  0  0  0
 11 28  1  0  0  0  0
 12 13  1  0  0  0  0
 12 29  1  0  0  0  0
 13 14  2  0  0  0  0
 13 15  1  0  0  0  0
 14 30  1  0  0  0  0
M  END
>  <PUBCHEM_COMPOUND_CID>
67119618

>  <PUBCHEM_CONFORMER_RMSD>
0.8

>  <PUBCHEM_CONFORMER_DIVERSEORDER>
1
35
44
51
15
50
12
24
42
33
38
36
49
23
28
18
22
45
13
30
26
41
9
17
21
32
10
5
8
46
48
39
2
37
7
27
16
40
20
14
31
3
43
6
29
25
34
4
47
19
11

>  <PUBCHEM_MMFF94_PARTIAL_CHARGES>
17
1 -0.57
10 0.41
11 -0.15
12 -0.15
13 0.09
14 0.16
15 0.54
2 -0.87
24 0.4
28 0.15
29 0.15
3 -0.62
30 0.15
31 0.37
32 0.37
4 -0.8
7 0.37

>  <PUBCHEM_EFFECTIVE_ROTOR_COUNT>
6

>  <PUBCHEM_PHARMACOPHORE_FEATURES>
6
1 1 acceptor
1 2 donor
1 4 donor
1 9 hydrophobe
3 2 3 10 cation
6 3 10 11 12 13 14 rings

>  <PUBCHEM_HEAVY_ATOM_COUNT>
15

>  <PUBCHEM_ATOM_DEF_STEREO_COUNT>
0

>  <PUBCHEM_ATOM_UDEF_STEREO_COUNT>
0

>  <PUBCHEM_BOND_DEF_STEREO_COUNT>
0

>  <PUBCHEM_BOND_UDEF_STEREO_COUNT>
0

>  <PUBCHEM_ISOTOPIC_ATOM_COUNT>
0

>  <PUBCHEM_COMPONENT_COUNT>
1

>  <PUBCHEM_CACTVS_TAUTO_COUNT>
7

>  <PUBCHEM_CONFORMER_ID>
04002A0200000001

>  <PUBCHEM_MMFF94_ENERGY>
35.8615

>  <PUBCHEM_FEATURE_SELFOVERLAP>
30.446

>  <PUBCHEM_SHAPE_FINGERPRINT>
10354089 29 18334859420035233369
11471102 20 18411699889648673198
12236239 1 18060418023739772231
13167372 99 18341615859170033657
13533116 47 16271932554133919863
14123238 8 18410573985758054115
15048467 5 18412825798219537281
17834072 33 18131066065219153279
17834072 8 18343027692208093030
17834076 25 17917710197646736875
20281389 69 18333730208951705341
20645477 70 18270683060641736982
21267235 1 18338520746838355702
212847 35 18342738537344833080
23402539 116 17775560957873182509
23402655 69 18272086102382764703
23557571 272 17022901198974860663
26918003 58 18186805790310003963
29717793 49 17489311862582200060
300161 21 18343577443832618879
3545911 37 18410575085311970859
4072396 5 18410565176769873210
42630746 31 18272371945246627254
42788 4 18410855464918994765
4340502 62 16950281806050674899
4463277 17 18411419510147365189
5104073 3 18263076768038739338
542803 24 17203331104980925225
59755656 520 17530962501763161203

>  <PUBCHEM_SHAPE_MULTIPOLES>
287.88
14.99
1.28
0.59
19.72
0.01
0
3.45
-0.48
-1.02
0
0.07
0.01
-0.04

>  <PUBCHEM_SHAPE_SELFOVERLAP>
577.499

>  <PUBCHEM_SHAPE_VOLUME>
169.2

>  <PUBCHEM_COORDINATE_TYPE>
2
5
10

$$$$
