67482276
 OpenBabel01182520543D

 27 27  0  0  0  0  0  0  0  0999 V2000
   -2.5353    0.3818   -0.1179 Si  0  0  0  0  0  0  0  0  0  0  0  0
   -1.4692   -1.9466    0.5188 O   0  0  0  0  0  0  0  0  0  0  0  0
    2.0484    1.2202    0.3334 N   0  0  0  0  0  0  0  0  0  0  0  0
    4.3108    0.6332   -0.1293 N   0  0  0  0  0  0  0  0  0  0  0  0
   -1.1130   -0.8130    0.2255 C   0  0  0  0  0  0  0  0  0  0  0  0
   -4.0056   -0.5846   -0.8033 C   0  0  0  0  0  0  0  0  0  0  0  0
   -3.0805    1.2257    1.4666 C   0  0  0  0  0  0  0  0  0  0  0  0
   -2.0485    1.6679   -1.3947 C   0  0  0  0  0  0  0  0  0  0  0  0
    0.3188   -0.4561    0.1252 C   0  0  0  0  0  0  0  0  0  0  0  0
    1.2680   -1.3991   -0.2532 C   0  0  0  0  0  0  0  0  0  0  0  0
    0.7565    0.8282    0.4053 C   0  0  0  0  0  0  0  0  0  0  0  0
    2.6071   -1.0339   -0.3386 C   0  0  0  0  0  0  0  0  0  0  0  0
    2.9425    0.2764   -0.0377 C   0  0  0  0  0  0  0  0  0  0  0  0
   -4.8387    0.0904   -1.0199 H   0  0  0  0  0  0  0  0  0  0  0  0
   -3.7271   -1.0988   -1.7278 H   0  0  0  0  0  0  0  0  0  0  0  0
   -4.3451   -1.3314   -0.0796 H   0  0  0  0  0  0  0  0  0  0  0  0
   -3.9236    1.8964    1.2759 H   0  0  0  0  0  0  0  0  0  0  0  0
   -3.3928    0.4859    2.2096 H   0  0  0  0  0  0  0  0  0  0  0  0
   -2.2643    1.8157    1.8934 H   0  0  0  0  0  0  0  0  0  0  0  0
   -2.9305    2.2247   -1.7261 H   0  0  0  0  0  0  0  0  0  0  0  0
   -1.3342    2.3899   -0.9908 H   0  0  0  0  0  0  0  0  0  0  0  0
   -1.6000    1.1914   -2.2716 H   0  0  0  0  0  0  0  0  0  0  0  0
    0.9801   -2.4203   -0.4875 H   0  0  0  0  0  0  0  0  0  0  0  0
    0.0899    1.6141    0.7416 H   0  0  0  0  0  0  0  0  0  0  0  0
    3.3533   -1.7641   -0.6345 H   0  0  0  0  0  0  0  0  0  0  0  0
    4.5520    1.5900    0.0974 H   0  0  0  0  0  0  0  0  0  0  0  0
    5.0074   -0.0858    0.0225 H   0  0  0  0  0  0  0  0  0  0  0  0
  1  5  1  0  0  0  0
  1  6  1  0  0  0  0
  1  7  1  0  0  0  0
  1  8  1  0  0  0  0
  2  5  2  0  0  0  0
  3 11  1  0  0  0  0
  3 13  2  0  0  0  0
  4 13  1  0  0  0  0
  4 26  1  0  0  0  0
  4 27  1  0  0  0  0
  5  9  1  0  0  0  0
  6 14  1  0  0  0  0
  6 15  1  0  0  0  0
  6 16  1  0  0  0  0
  7 17  1  0  0  0  0
  7 18  1  0  0  0  0
  7 19  1  0  0  0  0
  8 20  1  0  0  0  0
  8 21  1  0  0  0  0
  8 22  1  0  0  0  0
  9 10  1  0  0  0  0
  9 11  2  0  0  0  0
 10 12  2  0  0  0  0
 10 23  1  0  0  0  0
 11 24  1  0  0  0  0
 12 13  1  0  0  0  0
 12 25  1  0  0  0  0
M  END
>  <PUBCHEM_COMPOUND_CID>
67482276

>  <PUBCHEM_CONFORMER_RMSD>
0.6

>  <PUBCHEM_CONFORMER_DIVERSEORDER>
1
4
5
7
6
8
2
3

>  <PUBCHEM_MMFF94_PARTIAL_CHARGES>
18
1 0.43
10 -0.15
11 0.16
12 -0.15
13 0.41
2 -0.57
23 0.15
24 0.15
25 0.15
26 0.4
27 0.4
3 -0.62
4 -0.9
5 0.29
6 -0.08
7 -0.08
8 -0.08
9 0.09

>  <PUBCHEM_EFFECTIVE_ROTOR_COUNT>
2

>  <PUBCHEM_PHARMACOPHORE_FEATURES>
3
1 4 donor
3 3 4 13 cation
6 3 9 10 11 12 13 rings

>  <PUBCHEM_HEAVY_ATOM_COUNT>
13

>  <PUBCHEM_ATOM_DEF_STEREO_COUNT>
0

>  <PUBCHEM_ATOM_UDEF_STEREO_COUNT>
0

>  <PUBCHEM_BOND_DEF_STEREO_COUNT>
0

>  <PUBCHEM_BOND_UDEF_STEREO_COUNT>
0

>  <PUBCHEM_ISOTOPIC_ATOM_COUNT>
0

>  <PUBCHEM_COMPONENT_COUNT>
1

>  <PUBCHEM_CACTVS_TAUTO_COUNT>
4

>  <PUBCHEM_CONFORMER_ID>
0405B2A400000001

>  <PUBCHEM_MMFF94_ENERGY>
33.7485

>  <PUBCHEM_FEATURE_SELFOVERLAP>
15.223

>  <PUBCHEM_SHAPE_FINGERPRINT>
10608611 8 18409162220901310524
124424 183 18113894957779025698
12491281 212 17917156004867914289
12932764 1 18187932703233295515
13380535 21 18337404780742560290
13380535 76 18410572902920426066
13764800 53 17168992184187936541
14144814 61 18409448063838460971
14325111 11 18413108329594451609
15219456 202 18334856061328551588
15309172 13 18334300829631866731
15775835 57 18336546010943205221
16945 1 18113623373705783102
17802600 8 18336818762372001717
17844478 74 17968673626630265769
18186145 218 18268996392640131318
19422 9 17917994923650011631
200 152 17988634221050673279
20201158 50 18412825793597470414
20711983 171 17417817193186896761
21501502 16 18342458101792340915
21524375 3 18410289233310307706
23402539 116 18188757444555183135
23402655 69 18272364240154159605
23557571 272 18268436913347839623
25 1 18341334379301853690
2748010 2 17977384167882172705
305870 269 17532080605718370123
4028521 119 18187633700879873463
5084963 1 18411972538678567661
63268167 104 18269833125521238985
6333449 129 18335984250453222643
69090 78 18411412925698866871
81228 2 17971767811301943859

>  <PUBCHEM_SHAPE_MULTIPOLES>
269.92
6.66
1.68
1.06
2.29
0.19
0
-1.06
0.57
-0.33
0.01
-1.02
-0.35
0.01

>  <PUBCHEM_SHAPE_SELFOVERLAP>
529.318

>  <PUBCHEM_SHAPE_VOLUME>
163.6

>  <PUBCHEM_COORDINATE_TYPE>
2
5
10

$$$$
