67508458
 OpenBabel01182520543D

 33 34  0  0  1  0  0  0  0  0999 V2000
    0.5062    2.3622   -1.0253 O   0  0  0  0  0  0  0  0  0  0  0  0
   -0.4737   -0.4055    0.6717 N   0  0  0  0  0  0  0  0  0  0  0  0
    1.2751   -1.9022    0.1701 N   0  0  0  0  0  0  0  0  0  0  0  0
    1.2832    2.5351    1.1253 N   0  0  0  0  0  0  0  0  0  0  0  0
   -1.5846   -0.3795   -0.2441 C   0  0  0  0  0  0  0  0  0  0  0  0
   -2.6361   -1.4139    0.1290 C   0  0  0  0  0  0  0  0  0  0  0  0
   -2.3567    0.9290   -0.1580 C   0  0  0  0  0  0  0  0  0  0  0  0
   -3.9059   -0.9157   -0.5531 C   0  0  0  0  0  0  0  0  0  0  0  0
   -3.7221    0.5907   -0.7466 C   0  0  0  0  0  0  0  0  0  0  0  0
    0.8346   -0.6251    0.2232 C   0  0  0  0  0  0  0  0  0  0  0  0
   -0.7392   -0.2036    2.0956 C   0  0  0  0  0  0  0  0  0  0  0  0
    1.5978    0.4742   -0.1357 C   0  0  0  0  0  0  0  0  0  0  0  0
    2.8968    0.2485   -0.5774 C   0  0  0  0  0  0  0  0  0  0  0  0
    1.0960    1.8396   -0.0646 C   0  0  0  0  0  0  0  0  0  0  0  0
    2.5426   -2.0825   -0.2642 C   0  0  0  0  0  0  0  0  0  0  0  0
    3.3859   -1.0514   -0.6459 C   0  0  0  0  0  0  0  0  0  0  0  0
   -1.2584   -0.5456   -1.2802 H   0  0  0  0  0  0  0  0  0  0  0  0
   -2.8186   -1.4933    1.2053 H   0  0  0  0  0  0  0  0  0  0  0  0
   -2.3596   -2.4160   -0.2163 H   0  0  0  0  0  0  0  0  0  0  0  0
   -1.8825    1.7320   -0.7274 H   0  0  0  0  0  0  0  0  0  0  0  0
   -2.4892    1.3030    0.8616 H   0  0  0  0  0  0  0  0  0  0  0  0
   -4.7944   -1.1424    0.0451 H   0  0  0  0  0  0  0  0  0  0  0  0
   -4.0337   -1.4025   -1.5268 H   0  0  0  0  0  0  0  0  0  0  0  0
   -3.7486    0.8330   -1.8153 H   0  0  0  0  0  0  0  0  0  0  0  0
   -4.5192    1.1630   -0.2613 H   0  0  0  0  0  0  0  0  0  0  0  0
   -1.7870   -0.0136    2.3415 H   0  0  0  0  0  0  0  0  0  0  0  0
   -0.1620    0.6415    2.4820 H   0  0  0  0  0  0  0  0  0  0  0  0
   -0.4368   -1.0967    2.6542 H   0  0  0  0  0  0  0  0  0  0  0  0
    3.5371    1.0763   -0.8706 H   0  0  0  0  0  0  0  0  0  0  0  0
    2.8761   -3.1144   -0.2991 H   0  0  0  0  0  0  0  0  0  0  0  0
    4.3951   -1.2512   -0.9871 H   0  0  0  0  0  0  0  0  0  0  0  0
    0.9461    3.4860    1.2322 H   0  0  0  0  0  0  0  0  0  0  0  0
    1.7600    2.1238    1.9213 H   0  0  0  0  0  0  0  0  0  0  0  0
  1 14  2  0  0  0  0
  2  5  1  0  0  0  0
  2 10  1  0  0  0  0
  2 11  1  0  0  0  0
  3 10  1  0  0  0  0
  3 15  2  0  0  0  0
  4 14  1  0  0  0  0
  4 32  1  0  0  0  0
  4 33  1  0  0  0  0
  5  6  1  0  0  0  0
  5  7  1  0  0  0  0
  5 17  1  0  0  0  0
  6  8  1  0  0  0  0
  6 18  1  0  0  0  0
  6 19  1  0  0  0  0
  7  9  1  0  0  0  0
  7 20  1  0  0  0  0
  7 21  1  0  0  0  0
  8  9  1  0  0  0  0
  8 22  1  0  0  0  0
  8 23  1  0  0  0  0
  9 24  1  0  0  0  0
  9 25  1  0  0  0  0
 10 12  2  0  0  0  0
 11 26  1  0  0  0  0
 11 27  1  0  0  0  0
 11 28  1  0  0  0  0
 12 13  1  0  0  0  0
 12 14  1  0  0  0  0
 13 16  2  0  0  0  0
 13 29  1  0  0  0  0
 15 16  1  0  0  0  0
 15 30  1  0  0  0  0
 16 31  1  0  0  0  0
M  END
>  <PUBCHEM_COMPOUND_CID>
67508458

>  <PUBCHEM_CONFORMER_RMSD>
0.6

>  <PUBCHEM_CONFORMER_DIVERSEORDER>
1
23
22
17
32
38
39
12
33
14
25
20
26
5
15
34
10
16
9
35
2
3
18
36
21
19
37
41
40
27
24
29
8
7
30
31
13
11
28
4
6

>  <PUBCHEM_MMFF94_PARTIAL_CHARGES>
17
1 -0.57
10 0.41
11 0.37
12 0.09
13 -0.15
14 0.54
15 0.16
16 -0.15
2 -0.84
29 0.15
3 -0.62
30 0.15
31 0.15
32 0.37
33 0.37
4 -0.8
5 0.37

>  <PUBCHEM_EFFECTIVE_ROTOR_COUNT>
4

>  <PUBCHEM_PHARMACOPHORE_FEATURES>
6
1 1 acceptor
1 2 cation
1 3 acceptor
1 4 donor
5 5 6 7 8 9 rings
6 3 10 12 13 15 16 rings

>  <PUBCHEM_HEAVY_ATOM_COUNT>
16

>  <PUBCHEM_ATOM_DEF_STEREO_COUNT>
0

>  <PUBCHEM_ATOM_UDEF_STEREO_COUNT>
0

>  <PUBCHEM_BOND_DEF_STEREO_COUNT>
0

>  <PUBCHEM_BOND_UDEF_STEREO_COUNT>
0

>  <PUBCHEM_ISOTOPIC_ATOM_COUNT>
0

>  <PUBCHEM_COMPONENT_COUNT>
1

>  <PUBCHEM_CACTVS_TAUTO_COUNT>
2

>  <PUBCHEM_CONFORMER_ID>
040618EA00000001

>  <PUBCHEM_MMFF94_ENERGY>
70.7611

>  <PUBCHEM_FEATURE_SELFOVERLAP>
30.446

>  <PUBCHEM_SHAPE_FINGERPRINT>
10465860 71 18271819985866330414
11578080 2 17630020699327085888
116883 192 17767126397622658230
12654215 9 18408600366422798244
14250199 8 18335138756334638725
14251745 187 18113899385526557740
14648413 74 17751371791745090972
14817 1 14382198925877575256
15210252 30 16733820874734315253
15477762 27 18413107285775318367
16945 1 18342455962829841539
18186145 218 18041268937999785991
18410436 195 18201714016509606296
19010151 120 18272373023346494490
20201158 50 18260832579044329798
20361792 2 16056874741393043195
20645477 70 18201434826666552551
20671657 53 18201442449753344182
21756936 100 10666390343535612558
21947302 44 18042679679467799345
22112679 90 17058959734289372841
221490 88 18265339575949049071
22802520 49 18187936126564784745
23402539 116 18261667065773709742
23402655 69 18335137540647741557
23526113 38 17894354362674612338
23557571 272 17982714295749069394
25 1 17895479124515562491
2748010 2 17688042219961280778
3060560 45 18412256255175091823
549884 4 18113614564938914069
6049 1 18115035220204368075
63268167 104 18340779207792648904
6992083 37 17984438351234550105
7364860 26 18271801384246828985
74978 22 18342737425291045207
7832392 63 18339358557403028173
81228 2 17905339433356130850
84936 182 17987237922308229664
93112 12 18411133649951036303

>  <PUBCHEM_SHAPE_MULTIPOLES>
308.46
5.82
2.29
1.15
3.17
0.9
-0.58
-1.9
2
-1.27
0.02
0.18
0.19
0.31

>  <PUBCHEM_SHAPE_SELFOVERLAP>
647.918

>  <PUBCHEM_SHAPE_VOLUME>
174.7

>  <PUBCHEM_COORDINATE_TYPE>
2
5
10

$$$$
