67528029
 OpenBabel01182520543D

 23 23  0  0  0  0  0  0  0  0999 V2000
    1.6303   -1.7166    1.1267 O   0  0  0  0  0  0  0  0  0  0  0  0
    0.9336    1.4320    0.0007 N   0  0  0  0  0  0  0  0  0  0  0  0
   -1.4362    1.3690   -0.0279 N   0  0  0  0  0  0  0  0  0  0  0  0
    1.6668   -1.7469   -1.1659 N   0  0  0  0  0  0  0  0  0  0  0  0
   -0.2708    0.6842   -0.0028 C   0  0  0  0  0  0  0  0  0  0  0  0
   -0.1839   -0.6984    0.0223 C   0  0  0  0  0  0  0  0  0  0  0  0
    1.5679    1.7938   -1.2471 C   0  0  0  0  0  0  0  0  0  0  0  0
    1.5299    1.8437    1.2518 C   0  0  0  0  0  0  0  0  0  0  0  0
   -1.3694   -1.4251    0.0215 C   0  0  0  0  0  0  0  0  0  0  0  0
   -2.5882   -0.7564   -0.0040 C   0  0  0  0  0  0  0  0  0  0  0  0
    1.0875   -1.4082    0.0524 C   0  0  0  0  0  0  0  0  0  0  0  0
   -2.5675    0.6289   -0.0278 C   0  0  0  0  0  0  0  0  0  0  0  0
    2.6581    1.7293   -1.1647 H   0  0  0  0  0  0  0  0  0  0  0  0
    1.3028    2.8209   -1.5180 H   0  0  0  0  0  0  0  0  0  0  0  0
    1.2609    1.1370   -2.0685 H   0  0  0  0  0  0  0  0  0  0  0  0
    2.3858    2.5077    1.0891 H   0  0  0  0  0  0  0  0  0  0  0  0
    1.8828    0.9782    1.8212 H   0  0  0  0  0  0  0  0  0  0  0  0
    0.8037    2.3885    1.8647 H   0  0  0  0  0  0  0  0  0  0  0  0
   -1.3566   -2.5117    0.0414 H   0  0  0  0  0  0  0  0  0  0  0  0
   -3.5248   -1.3021   -0.0050 H   0  0  0  0  0  0  0  0  0  0  0  0
   -3.4912    1.1978   -0.0481 H   0  0  0  0  0  0  0  0  0  0  0  0
    1.2341   -1.5100   -2.0531 H   0  0  0  0  0  0  0  0  0  0  0  0
    2.5491   -2.2462   -1.2033 H   0  0  0  0  0  0  0  0  0  0  0  0
  1 11  2  0  0  0  0
  2  5  1  0  0  0  0
  2  7  1  0  0  0  0
  2  8  1  0  0  0  0
  3  5  1  0  0  0  0
  3 12  2  0  0  0  0
  4 11  1  0  0  0  0
  4 22  1  0  0  0  0
  4 23  1  0  0  0  0
  5  6  2  0  0  0  0
  6  9  1  0  0  0  0
  6 11  1  0  0  0  0
  7 13  1  0  0  0  0
  7 14  1  0  0  0  0
  7 15  1  0  0  0  0
  8 16  1  0  0  0  0
  8 17  1  0  0  0  0
  8 18  1  0  0  0  0
  9 10  2  0  0  0  0
  9 19  1  0  0  0  0
 10 12  1  0  0  0  0
 10 20  1  0  0  0  0
 12 21  1  0  0  0  0
M  END
>  <PUBCHEM_COMPOUND_CID>
67528029

>  <PUBCHEM_CONFORMER_RMSD>
0.6

>  <PUBCHEM_CONFORMER_DIVERSEORDER>
1
6
3
4
5
2

>  <PUBCHEM_MMFF94_PARTIAL_CHARGES>
17
1 -0.57
10 -0.15
11 0.54
12 0.16
19 0.15
2 -0.84
20 0.15
21 0.15
22 0.37
23 0.37
3 -0.62
4 -0.8
5 0.41
6 0.09
7 0.37
8 0.37
9 -0.15

>  <PUBCHEM_EFFECTIVE_ROTOR_COUNT>
2

>  <PUBCHEM_PHARMACOPHORE_FEATURES>
5
1 1 acceptor
1 2 cation
1 3 acceptor
1 4 donor
6 3 5 6 9 10 12 rings

>  <PUBCHEM_HEAVY_ATOM_COUNT>
12

>  <PUBCHEM_ATOM_DEF_STEREO_COUNT>
0

>  <PUBCHEM_ATOM_UDEF_STEREO_COUNT>
0

>  <PUBCHEM_BOND_DEF_STEREO_COUNT>
0

>  <PUBCHEM_BOND_UDEF_STEREO_COUNT>
0

>  <PUBCHEM_ISOTOPIC_ATOM_COUNT>
0

>  <PUBCHEM_COMPONENT_COUNT>
1

>  <PUBCHEM_CACTVS_TAUTO_COUNT>
2

>  <PUBCHEM_CONFORMER_ID>
0406655D00000001

>  <PUBCHEM_MMFF94_ENERGY>
60.2139

>  <PUBCHEM_FEATURE_SELFOVERLAP>
25.372

>  <PUBCHEM_SHAPE_FINGERPRINT>
12423570 1 14158096895195109207
12524768 44 18198054772871500703
13380535 21 18266761219188115795
14128692 85 18339935796237454567
161256 15 18411146856843362127
16945 1 17975126853636369515
20511035 2 18411410692415748925
20645476 183 16956185298897308644
20653091 64 18334862692657920867
20871998 184 16973367440140003076
21040471 1 17905889528013641968
23211744 41 17342090760226980561
23552423 10 18261395572131910471
241688 4 18118116974786620681
2748010 2 18408602569994131247
5084963 1 17839198633140755261
7364860 26 18201720664828680546
81228 2 17547014022317518186

>  <PUBCHEM_SHAPE_MULTIPOLES>
226.14
3.12
2.37
1.05
1.43
0.65
-0.01
-0.81
-0.04
-1.11
0
-0.77
-0.05
0.04

>  <PUBCHEM_SHAPE_SELFOVERLAP>
465.782

>  <PUBCHEM_SHAPE_VOLUME>
130.5

>  <PUBCHEM_COORDINATE_TYPE>
2
5
10

$$$$
