67608048
 OpenBabel01182520543D

 34 34  0  0  0  0  0  0  0  0999 V2000
    4.5291    0.2795   -0.9685 O   0  0  0  0  0  0  0  0  0  0  0  0
   -1.5659    0.9767    0.6215 N   0  0  0  0  0  0  0  0  0  0  0  0
   -4.1123   -1.6938    0.0985 N   0  0  0  0  0  0  0  0  0  0  0  0
    0.2806   -0.4351    1.0770 N   0  0  0  0  0  0  0  0  0  0  0  0
    4.2709   -1.4774    0.4825 N   0  0  0  0  0  0  0  0  0  0  0  0
   -3.0753   -0.7408   -0.3271 C   0  0  0  0  0  0  0  0  0  0  0  0
   -2.5604   -0.0240    0.9370 C   0  0  0  0  0  0  0  0  0  0  0  0
   -1.9598   -1.5415   -1.0139 C   0  0  0  0  0  0  0  0  0  0  0  0
   -3.7015    0.2489   -1.3211 C   0  0  0  0  0  0  0  0  0  0  0  0
   -0.2237    0.6317    0.4171 C   0  0  0  0  0  0  0  0  0  0  0  0
   -1.9905    2.3722    0.5103 C   0  0  0  0  0  0  0  0  0  0  0  0
    0.5068    1.4176   -0.4596 C   0  0  0  0  0  0  0  0  0  0  0  0
    1.8407    1.0875   -0.6728 C   0  0  0  0  0  0  0  0  0  0  0  0
    2.3954   -0.0030   -0.0119 C   0  0  0  0  0  0  0  0  0  0  0  0
    1.5805   -0.7254    0.8446 C   0  0  0  0  0  0  0  0  0  0  0  0
    3.7853   -0.3731   -0.2135 C   0  0  0  0  0  0  0  0  0  0  0  0
   -2.1620   -0.7532    1.6558 H   0  0  0  0  0  0  0  0  0  0  0  0
   -3.4047    0.4455    1.4609 H   0  0  0  0  0  0  0  0  0  0  0  0
   -1.2274   -0.8973   -1.5085 H   0  0  0  0  0  0  0  0  0  0  0  0
   -2.3716   -2.1836   -1.8032 H   0  0  0  0  0  0  0  0  0  0  0  0
   -1.4368   -2.1970   -0.3087 H   0  0  0  0  0  0  0  0  0  0  0  0
   -2.9482    0.9013   -1.7740 H   0  0  0  0  0  0  0  0  0  0  0  0
   -4.1926   -0.2795   -2.1476 H   0  0  0  0  0  0  0  0  0  0  0  0
   -4.4568    0.8799   -0.8389 H   0  0  0  0  0  0  0  0  0  0  0  0
   -4.8922   -1.1906    0.5205 H   0  0  0  0  0  0  0  0  0  0  0  0
   -4.4953   -2.1771   -0.7134 H   0  0  0  0  0  0  0  0  0  0  0  0
   -2.9828    2.5245    0.9490 H   0  0  0  0  0  0  0  0  0  0  0  0
   -2.0492    2.6911   -0.5352 H   0  0  0  0  0  0  0  0  0  0  0  0
   -1.3041    3.0348    1.0498 H   0  0  0  0  0  0  0  0  0  0  0  0
    0.0927    2.2615   -0.9990 H   0  0  0  0  0  0  0  0  0  0  0  0
    2.4279    1.6904   -1.3602 H   0  0  0  0  0  0  0  0  0  0  0  0
    1.9076   -1.5898    1.4082 H   0  0  0  0  0  0  0  0  0  0  0  0
    3.7347   -2.0559    1.1166 H   0  0  0  0  0  0  0  0  0  0  0  0
    5.2407   -1.7542    0.3653 H   0  0  0  0  0  0  0  0  0  0  0  0
  1 16  2  0  0  0  0
  2  7  1  0  0  0  0
  2 10  1  0  0  0  0
  2 11  1  0  0  0  0
  3  6  1  0  0  0  0
  3 25  1  0  0  0  0
  3 26  1  0  0  0  0
  4 10  2  0  0  0  0
  4 15  1  0  0  0  0
  5 16  1  0  0  0  0
  5 33  1  0  0  0  0
  5 34  1  0  0  0  0
  6  7  1  0  0  0  0
  6  8  1  0  0  0  0
  6  9  1  0  0  0  0
  7 17  1  0  0  0  0
  7 18  1  0  0  0  0
  8 19  1  0  0  0  0
  8 20  1  0  0  0  0
  8 21  1  0  0  0  0
  9 22  1  0  0  0  0
  9 23  1  0  0  0  0
  9 24  1  0  0  0  0
 10 12  1  0  0  0  0
 11 27  1  0  0  0  0
 11 28  1  0  0  0  0
 11 29  1  0  0  0  0
 12 13  2  0  0  0  0
 12 30  1  0  0  0  0
 13 14  1  0  0  0  0
 13 31  1  0  0  0  0
 14 15  2  0  0  0  0
 14 16  1  0  0  0  0
 15 32  1  0  0  0  0
M  END
>  <PUBCHEM_COMPOUND_CID>
67608048

>  <PUBCHEM_CONFORMER_RMSD>
0.6

>  <PUBCHEM_CONFORMER_DIVERSEORDER>
3
70
62
51
68
1
58
40
53
63
69
71
36
42
67
52
8
10
72
28
7
47
39
61
49
65
32
66
35
26
55
31
41
30
22
60
45
48
64
5
50
44
12
57
9
59
15
34
54
29
43
38
6
33
11
16
18
56
37
46
27
21
17
2
4
23
19
14
20
13
25
24

>  <PUBCHEM_MMFF94_PARTIAL_CHARGES>
21
1 -0.57
10 0.41
11 0.37
12 -0.15
13 -0.15
14 0.09
15 0.16
16 0.54
2 -0.84
25 0.36
26 0.36
3 -0.99
30 0.15
31 0.15
32 0.15
33 0.37
34 0.37
4 -0.62
5 -0.8
6 0.27
7 0.37

>  <PUBCHEM_EFFECTIVE_ROTOR_COUNT>
4

>  <PUBCHEM_PHARMACOPHORE_FEATURES>
7
1 1 acceptor
1 3 cation
1 3 donor
1 5 donor
3 2 4 10 cation
3 6 8 9 hydrophobe
6 4 10 12 13 14 15 rings

>  <PUBCHEM_HEAVY_ATOM_COUNT>
16

>  <PUBCHEM_ATOM_DEF_STEREO_COUNT>
0

>  <PUBCHEM_ATOM_UDEF_STEREO_COUNT>
0

>  <PUBCHEM_BOND_DEF_STEREO_COUNT>
0

>  <PUBCHEM_BOND_UDEF_STEREO_COUNT>
0

>  <PUBCHEM_ISOTOPIC_ATOM_COUNT>
0

>  <PUBCHEM_COMPONENT_COUNT>
1

>  <PUBCHEM_CACTVS_TAUTO_COUNT>
2

>  <PUBCHEM_CONFORMER_ID>
04079DF000000003

>  <PUBCHEM_MMFF94_ENERGY>
52.6856

>  <PUBCHEM_FEATURE_SELFOVERLAP>
35.521

>  <PUBCHEM_SHAPE_FINGERPRINT>
10062212 137 18189053105798108626
11046707 91 18202846551913976818
11401426 45 18040427798503403040
11471102 22 13973970921360750416
11769659 78 18341892974506538122
11806522 49 18336265734146384040
12251169 10 11239995676719908001
12500047 106 17986951843110408705
12633257 1 15338839823798944359
13288520 33 18131357392819198950
13296908 3 18341323509166914993
13581323 91 17775287157760326004
13583140 156 17058912387229186874
13760787 5 17531258214550546160
14123260 362 10665232510134908950
14576447 43 18335984272023141126
14943859 89 12107784116413691676
14993402 34 18408324393315024510
15653759 3 16559031575648483634
16752209 62 18200296741979467853
16945 1 18342455941286491713
18186145 218 17168136862461264925
19422 9 18336551525644185994
19862831 5 17894625937667244498
200 152 18335417975957523053
201361 129 9295300442988249460
20279233 1 15123516891248404697
20281475 54 18337111168573094218
20361792 2 18059005215844077685
20645476 183 18260257560702604007
20645477 70 16009025039256158026
20671657 53 18408604781327697996
20871999 31 18412260623415021493
21061003 4 15913328000533335689
21119208 17 18334852818607196095
21634736 98 18266179607301132660
21713013 43 17750506455257641127
221490 88 17899142886195675331
22646028 28 18341334473981207199
232386 152 17917433176145034453
23402539 116 18261673680260306476
23402655 69 18041278785806102852
23500284 214 12829487004882837109
23557571 272 17489036954653202576
23559900 14 18272922839395452456
23598291 2 17973437711359854674
25 1 16950552243319961489
2748010 2 17608110967580756608
465052 167 18054235603523864431
568465 68 14907904932667793871
57096353 35 18187660102133603484
58051976 100 18341054021154017533
633830 44 17096384838667738256

>  <PUBCHEM_SHAPE_MULTIPOLES>
303.48
7.84
1.78
1.11
3.84
0.43
-0.09
-3
-1.55
-1.07
0.05
-0.31
-0.03
-0.69

>  <PUBCHEM_SHAPE_SELFOVERLAP>
620.607

>  <PUBCHEM_SHAPE_VOLUME>
176.4

>  <PUBCHEM_COORDINATE_TYPE>
2
5
10

$$$$
