67952719
 OpenBabel01182520543D

 23 23  0  0  0  0  0  0  0  0999 V2000
   -3.1841    1.2374    0.4223 O   0  0  0  0  0  0  0  0  0  0  0  0
   -3.1866   -0.9861   -0.2355 N   0  0  0  0  0  0  0  0  0  0  0  0
    0.9433    1.4907   -0.2353 N   0  0  0  0  0  0  0  0  0  0  0  0
    3.0413    0.3689   -0.1064 N   0  0  0  0  0  0  0  0  0  0  0  0
    3.7499   -0.7559    0.0668 N   0  0  0  0  0  0  0  0  0  0  0  0
   -1.0989    0.2297    0.0555 C   0  0  0  0  0  0  0  0  0  0  0  0
   -0.3622   -0.9355    0.2372 C   0  0  0  0  0  0  0  0  0  0  0  0
    1.0265   -0.8890    0.1830 C   0  0  0  0  0  0  0  0  0  0  0  0
    1.6256    0.3378   -0.0540 C   0  0  0  0  0  0  0  0  0  0  0  0
   -2.5503    0.2138    0.1065 C   0  0  0  0  0  0  0  0  0  0  0  0
   -0.4047    1.4063   -0.1756 C   0  0  0  0  0  0  0  0  0  0  0  0
   -4.6220   -1.1535   -0.2557 C   0  0  0  0  0  0  0  0  0  0  0  0
    5.0222   -0.5647   -0.0089 C   0  0  0  0  0  0  0  0  0  0  0  0
   -0.8315   -1.8915    0.4496 H   0  0  0  0  0  0  0  0  0  0  0  0
    1.5803   -1.8093    0.3338 H   0  0  0  0  0  0  0  0  0  0  0  0
   -0.9176    2.3509   -0.3297 H   0  0  0  0  0  0  0  0  0  0  0  0
   -2.6384   -1.7730   -0.5662 H   0  0  0  0  0  0  0  0  0  0  0  0
    3.4809    1.2656   -0.2793 H   0  0  0  0  0  0  0  0  0  0  0  0
   -4.8532   -2.1942   -0.0173 H   0  0  0  0  0  0  0  0  0  0  0  0
   -4.9809   -0.9167   -1.2603 H   0  0  0  0  0  0  0  0  0  0  0  0
   -5.0961   -0.4878    0.4698 H   0  0  0  0  0  0  0  0  0  0  0  0
    5.7069   -1.4178    0.1175 H   0  0  0  0  0  0  0  0  0  0  0  0
    5.4882    0.4186   -0.1964 H   0  0  0  0  0  0  0  0  0  0  0  0
  1 10  2  0  0  0  0
  2 10  1  0  0  0  0
  2 12  1  0  0  0  0
  2 17  1  0  0  0  0
  3  9  2  0  0  0  0
  3 11  1  0  0  0  0
  4  5  1  0  0  0  0
  4  9  1  0  0  0  0
  4 18  1  0  0  0  0
  5 13  2  0  0  0  0
  6  7  1  0  0  0  0
  6 10  1  0  0  0  0
  6 11  2  0  0  0  0
  7  8  2  0  0  0  0
  7 14  1  0  0  0  0
  8  9  1  0  0  0  0
  8 15  1  0  0  0  0
 11 16  1  0  0  0  0
 12 19  1  0  0  0  0
 12 20  1  0  0  0  0
 12 21  1  0  0  0  0
 13 22  1  0  0  0  0
 13 23  1  0  0  0  0
M  END
>  <PUBCHEM_COMPOUND_CID>
67952719

>  <PUBCHEM_CONFORMER_RMSD>
0.6

>  <PUBCHEM_CONFORMER_DIVERSEORDER>
2
12
17
10
11
15
13
16
6
9
3
5
8
1
14
7
4

>  <PUBCHEM_MMFF94_PARTIAL_CHARGES>
20
1 -0.57
10 0.54
11 0.16
12 0.3
13 0.33
14 0.15
15 0.15
16 0.15
17 0.37
18 0.4
2 -0.73
22 0.06
23 0.06
3 -0.62
4 -0.46
5 -0.49
6 0.09
7 -0.15
8 -0.15
9 0.41

>  <PUBCHEM_EFFECTIVE_ROTOR_COUNT>
4

>  <PUBCHEM_PHARMACOPHORE_FEATURES>
6
1 1 acceptor
1 2 donor
1 4 donor
1 5 acceptor
3 3 4 9 cation
6 3 6 7 8 9 11 rings

>  <PUBCHEM_HEAVY_ATOM_COUNT>
13

>  <PUBCHEM_ATOM_DEF_STEREO_COUNT>
0

>  <PUBCHEM_ATOM_UDEF_STEREO_COUNT>
0

>  <PUBCHEM_BOND_DEF_STEREO_COUNT>
0

>  <PUBCHEM_BOND_UDEF_STEREO_COUNT>
0

>  <PUBCHEM_ISOTOPIC_ATOM_COUNT>
0

>  <PUBCHEM_COMPONENT_COUNT>
1

>  <PUBCHEM_CACTVS_TAUTO_COUNT>
7

>  <PUBCHEM_CONFORMER_ID>
040CE04F00000002

>  <PUBCHEM_MMFF94_ENERGY>
34.9922

>  <PUBCHEM_FEATURE_SELFOVERLAP>
30.446

>  <PUBCHEM_SHAPE_FINGERPRINT>
11062470 55 7925913681600087858
11401426 45 18408600344668399772
11543360 7 15213310767198731874
11806522 49 18410290358617859727
12032990 46 18409732876025865914
13288520 33 18413390925431188470
13690532 89 18408040727609691094
13760787 5 17895204306648314524
13862211 1 18408316696596993178
14325111 11 18410857672094562400
14911166 2 18040714787722353511
14993402 34 18186518821437294070
17834072 33 18341332292554474452
17862501 102 18342173384073097851
187816 3 17458063763664207754
19026448 4 16773802459046529332
200 152 18343295990304319047
21267235 1 18410301319190042571
21501925 9 18411976996448562488
221490 88 17972886031748998259
22485316 2 18410571752143016594
23402539 116 18410851036559779998
23402655 69 18263349310401592693
3286 77 18271241719943655453
8809292 202 18042409200066776875

>  <PUBCHEM_SHAPE_MULTIPOLES>
241.74
8.38
1.39
0.62
2.83
0.26
0
-3.2
-0.37
-0.56
-0.03
-0.08
0
-0.31

>  <PUBCHEM_SHAPE_SELFOVERLAP>
495.887

>  <PUBCHEM_SHAPE_VOLUME>
139

>  <PUBCHEM_COORDINATE_TYPE>
2
5
10

$$$$
