68083878
 OpenBabel01182520543D

 23 23  0  0  0  0  0  0  0  0999 V2000
    2.2622    1.6265   -0.7039 O   0  0  0  0  0  0  0  0  0  0  0  0
    2.7316   -0.5233    0.0849 N   0  0  0  0  0  0  0  0  0  0  0  0
   -1.7013   -0.3025   -0.9354 N   0  0  0  0  0  0  0  0  0  0  0  0
   -3.6305   -0.1287    0.3616 N   0  0  0  0  0  0  0  0  0  0  0  0
   -4.0871   -0.6048   -0.6994 N   0  0  0  0  0  0  0  0  0  0  0  0
    0.4429    0.3821   -0.0531 C   0  0  0  0  0  0  0  0  0  0  0  0
    1.8917    0.5425   -0.2548 C   0  0  0  0  0  0  0  0  0  0  0  0
    4.1780   -0.4491   -0.0660 C   0  0  0  0  0  0  0  0  0  0  0  0
    2.2145   -1.7833    0.6142 C   0  0  0  0  0  0  0  0  0  0  0  0
   -0.1576    0.7391    1.1493 C   0  0  0  0  0  0  0  0  0  0  0  0
   -0.3658   -0.1295   -1.0551 C   0  0  0  0  0  0  0  0  0  0  0  0
   -1.5291    0.5757    1.3104 C   0  0  0  0  0  0  0  0  0  0  0  0
   -2.2496    0.0555    0.2473 C   0  0  0  0  0  0  0  0  0  0  0  0
    4.6443   -0.5959    0.9123 H   0  0  0  0  0  0  0  0  0  0  0  0
    4.4804    0.5226   -0.4648 H   0  0  0  0  0  0  0  0  0  0  0  0
    4.5034   -1.2355   -0.7529 H   0  0  0  0  0  0  0  0  0  0  0  0
    2.5276   -2.5913   -0.0545 H   0  0  0  0  0  0  0  0  0  0  0  0
    1.1302   -1.8206    0.7117 H   0  0  0  0  0  0  0  0  0  0  0  0
    2.6553   -1.9473    1.6024 H   0  0  0  0  0  0  0  0  0  0  0  0
    0.4341    1.1443    1.9656 H   0  0  0  0  0  0  0  0  0  0  0  0
    0.0455   -0.4261   -2.0151 H   0  0  0  0  0  0  0  0  0  0  0  0
   -2.0103    0.8495    2.2432 H   0  0  0  0  0  0  0  0  0  0  0  0
   -5.1012   -0.7490   -0.6391 H   0  0  0  0  0  0  0  0  0  0  0  0
  1  7  2  0  0  0  0
  2  7  1  0  0  0  0
  2  8  1  0  0  0  0
  2  9  1  0  0  0  0
  3 11  1  0  0  0  0
  3 13  2  0  0  0  0
  4  5  2  0  0  0  0
  4 13  1  0  0  0  0
  5 23  1  0  0  0  0
  6  7  1  0  0  0  0
  6 10  1  0  0  0  0
  6 11  2  0  0  0  0
  8 14  1  0  0  0  0
  8 15  1  0  0  0  0
  8 16  1  0  0  0  0
  9 17  1  0  0  0  0
  9 18  1  0  0  0  0
  9 19  1  0  0  0  0
 10 12  2  0  0  0  0
 10 20  1  0  0  0  0
 11 21  1  0  0  0  0
 12 13  1  0  0  0  0
 12 22  1  0  0  0  0
M  END
>  <PUBCHEM_COMPOUND_CID>
68083878

>  <PUBCHEM_CONFORMER_RMSD>
0.6

>  <PUBCHEM_CONFORMER_DIVERSEORDER>
2
7
3
5
4
1
6

>  <PUBCHEM_MMFF94_PARTIAL_CHARGES>
17
1 -0.57
10 -0.15
11 0.16
12 -0.15
13 0.49
2 -0.66
20 0.15
21 0.15
22 0.15
23 0.4
3 -0.62
4 -0.18
5 -0.4
6 0.09
7 0.54
8 0.3
9 0.3

>  <PUBCHEM_EFFECTIVE_ROTOR_COUNT>
3

>  <PUBCHEM_PHARMACOPHORE_FEATURES>
3
1 1 acceptor
3 3 4 13 cation
6 3 6 10 11 12 13 rings

>  <PUBCHEM_HEAVY_ATOM_COUNT>
13

>  <PUBCHEM_ATOM_DEF_STEREO_COUNT>
0

>  <PUBCHEM_ATOM_UDEF_STEREO_COUNT>
0

>  <PUBCHEM_BOND_DEF_STEREO_COUNT>
0

>  <PUBCHEM_BOND_UDEF_STEREO_COUNT>
0

>  <PUBCHEM_ISOTOPIC_ATOM_COUNT>
0

>  <PUBCHEM_COMPONENT_COUNT>
1

>  <PUBCHEM_CACTVS_TAUTO_COUNT>
1

>  <PUBCHEM_CONFORMER_ID>
040EE0A600000002

>  <PUBCHEM_MMFF94_ENERGY>
40.5863

>  <PUBCHEM_FEATURE_SELFOVERLAP>
15.223

>  <PUBCHEM_SHAPE_FINGERPRINT>
10130415 120 17918274272617839289
10857977 72 16272207479258662201
11769659 78 18410848859085506051
13538477 17 17988359389934721446
13581323 91 17132113520288098222
13705890 14 17895479227589236579
13760787 19 18340774831463755847
14251717 144 18259704480277943890
14911166 2 14923944565776555591
14943859 89 13262685828455948512
15207287 21 17240481395080661922
15219456 202 16806180976372261868
16945 1 18187097134599392760
18175812 5 17022910089636238438
18186145 218 16805036329022843061
19026448 4 17894631500140522601
19026448 5 18410579504727927357
200 152 18408602556539556058
20201158 50 17313388898579442746
20279233 1 16950287299582670002
20645477 70 18186800274981684579
21293036 1 14562533976729086863
21501925 9 16415186923626305429
22445834 79 18129943369247435930
23402539 116 18341889663593512445
23559900 14 15140684687896234796
2748010 2 14347508097255140477
4990 188 16732979817353564419
77492 1 18201446869501564480

>  <PUBCHEM_SHAPE_MULTIPOLES>
241.74
6.35
1.19
1.1
0.56
0.06
0.08
1.72
-0.27
-0.63
0.12
0.17
-0.08
-0.83

>  <PUBCHEM_SHAPE_SELFOVERLAP>
499.766

>  <PUBCHEM_SHAPE_VOLUME>
138.5

>  <PUBCHEM_COORDINATE_TYPE>
2
5
10

$$$$
