68261051
 OpenBabel01182520543D

 34 34  0  0  0  0  0  0  0  0999 V2000
    0.7815   -2.4550    1.1380 O   0  0  0  0  0  0  0  0  0  0  0  0
    1.7841   -0.6704    0.0091 N   0  0  0  0  0  0  0  0  0  0  0  0
    1.4377    3.0140   -0.5273 N   0  0  0  0  0  0  0  0  0  0  0  0
   -2.6273   -0.8038   -1.1148 N   0  0  0  0  0  0  0  0  0  0  0  0
   -4.4861    0.5300   -0.4495 N   0  0  0  0  0  0  0  0  0  0  0  0
    1.6072    0.5824   -0.7220 C   0  0  0  0  0  0  0  0  0  0  0  0
    3.1610   -1.1138    0.1763 C   0  0  0  0  0  0  0  0  0  0  0  0
    1.6254    1.7772    0.2200 C   0  0  0  0  0  0  0  0  0  0  0  0
    0.7011   -1.3966    0.5155 C   0  0  0  0  0  0  0  0  0  0  0  0
    3.6011   -2.0007   -0.9700 C   0  0  0  0  0  0  0  0  0  0  0  0
   -0.6567   -0.8788    0.2838 C   0  0  0  0  0  0  0  0  0  0  0  0
   -1.2566   -0.0094    1.1882 C   0  0  0  0  0  0  0  0  0  0  0  0
    1.4240    4.1644    0.3657 C   0  0  0  0  0  0  0  0  0  0  0  0
   -1.3777   -1.2423   -0.8421 C   0  0  0  0  0  0  0  0  0  0  0  0
   -2.5410    0.4632    0.9423 C   0  0  0  0  0  0  0  0  0  0  0  0
   -3.1778    0.0398   -0.2131 C   0  0  0  0  0  0  0  0  0  0  0  0
    0.6725    0.5626   -1.2903 H   0  0  0  0  0  0  0  0  0  0  0  0
    2.4088    0.6678   -1.4665 H   0  0  0  0  0  0  0  0  0  0  0  0
    3.8203   -0.2450    0.2749 H   0  0  0  0  0  0  0  0  0  0  0  0
    3.2297   -1.6849    1.1091 H   0  0  0  0  0  0  0  0  0  0  0  0
    2.5882    1.8081    0.7449 H   0  0  0  0  0  0  0  0  0  0  0  0
    0.8526    1.6808    0.9868 H   0  0  0  0  0  0  0  0  0  0  0  0
    2.9591   -2.8839   -1.0547 H   0  0  0  0  0  0  0  0  0  0  0  0
    3.5584   -1.4669   -1.9249 H   0  0  0  0  0  0  0  0  0  0  0  0
    4.6298   -2.3406   -0.8158 H   0  0  0  0  0  0  0  0  0  0  0  0
    0.5560    2.9748   -1.0381 H   0  0  0  0  0  0  0  0  0  0  0  0
   -0.7385    0.2962    2.0930 H   0  0  0  0  0  0  0  0  0  0  0  0
    2.3693    4.2552    0.9105 H   0  0  0  0  0  0  0  0  0  0  0  0
    0.5998    4.1061    1.0842 H   0  0  0  0  0  0  0  0  0  0  0  0
    1.2939    5.0790   -0.2211 H   0  0  0  0  0  0  0  0  0  0  0  0
   -0.9621   -1.9175   -1.5839 H   0  0  0  0  0  0  0  0  0  0  0  0
   -3.0159    1.1404    1.6447 H   0  0  0  0  0  0  0  0  0  0  0  0
   -4.9500    0.2131   -1.2919 H   0  0  0  0  0  0  0  0  0  0  0  0
   -5.0581    0.7807    0.3475 H   0  0  0  0  0  0  0  0  0  0  0  0
  1  9  2  0  0  0  0
  2  6  1  0  0  0  0
  2  7  1  0  0  0  0
  2  9  1  0  0  0  0
  3  8  1  0  0  0  0
  3 13  1  0  0  0  0
  3 26  1  0  0  0  0
  4 14  1  0  0  0  0
  4 16  2  0  0  0  0
  5 16  1  0  0  0  0
  5 33  1  0  0  0  0
  5 34  1  0  0  0  0
  6  8  1  0  0  0  0
  6 17  1  0  0  0  0
  6 18  1  0  0  0  0
  7 10  1  0  0  0  0
  7 19  1  0  0  0  0
  7 20  1  0  0  0  0
  8 21  1  0  0  0  0
  8 22  1  0  0  0  0
  9 11  1  0  0  0  0
 10 23  1  0  0  0  0
 10 24  1  0  0  0  0
 10 25  1  0  0  0  0
 11 12  1  0  0  0  0
 11 14  2  0  0  0  0
 12 15  2  0  0  0  0
 12 27  1  0  0  0  0
 13 28  1  0  0  0  0
 13 29  1  0  0  0  0
 13 30  1  0  0  0  0
 14 31  1  0  0  0  0
 15 16  1  0  0  0  0
 15 32  1  0  0  0  0
M  END
>  <PUBCHEM_COMPOUND_CID>
68261051

>  <PUBCHEM_CONFORMER_RMSD>
0.8

>  <PUBCHEM_CONFORMER_DIVERSEORDER>
1
16
51
36
10
49
64
29
59
44
41
6
34
2
61
27
33
26
63
37
43
53
32
45
19
31
50
25
40
30
20
55
65
17
42
54
56
52
58
13
22
57
9
28
8
15
4
62
39
60
12
18
24
47
11
3
23
21
46
5
7
48
14
38
35

>  <PUBCHEM_MMFF94_PARTIAL_CHARGES>
21
1 -0.57
11 0.09
12 -0.15
13 0.27
14 0.16
15 -0.15
16 0.41
2 -0.66
26 0.36
27 0.15
3 -0.9
31 0.15
32 0.15
33 0.4
34 0.4
4 -0.62
5 -0.9
6 0.3
7 0.3
8 0.27
9 0.54

>  <PUBCHEM_EFFECTIVE_ROTOR_COUNT>
6

>  <PUBCHEM_PHARMACOPHORE_FEATURES>
6
1 1 acceptor
1 3 cation
1 3 donor
1 5 donor
3 4 5 16 cation
6 4 11 12 14 15 16 rings

>  <PUBCHEM_HEAVY_ATOM_COUNT>
16

>  <PUBCHEM_ATOM_DEF_STEREO_COUNT>
0

>  <PUBCHEM_ATOM_UDEF_STEREO_COUNT>
0

>  <PUBCHEM_BOND_DEF_STEREO_COUNT>
0

>  <PUBCHEM_BOND_UDEF_STEREO_COUNT>
0

>  <PUBCHEM_ISOTOPIC_ATOM_COUNT>
0

>  <PUBCHEM_COMPONENT_COUNT>
1

>  <PUBCHEM_CACTVS_TAUTO_COUNT>
4

>  <PUBCHEM_CONFORMER_ID>
041194BB00000001

>  <PUBCHEM_MMFF94_ENERGY>
41.7495

>  <PUBCHEM_FEATURE_SELFOVERLAP>
30.446

>  <PUBCHEM_SHAPE_FINGERPRINT>
104564 63 17904770972859448244
10756046 5 18270112547625122615
13134695 92 18409725136779596548
13464514 151 18265908028230096724
14115302 16 17489583468040776927
14250199 8 18341050812892419261
14993402 34 18269837527673196551
15490181 8 18049434052733418330
16945 1 18261668190749225123
17357990 137 17771940218495521009
18186145 218 18334848420840545631
19765921 60 18052529160796314201
20645476 183 18059011799739039551
20671657 1 18339929328027535628
21524375 3 17760075612022136456
21639500 275 18336259141218532533
220403 375 17831858328116047840
22620623 9 17408829634901977566
23402539 116 18128815231636303878
23419403 2 17557672847352402432
23557571 272 14045755798008042947
23598291 2 18201730513368239809
25 1 18040999501167897331
2748010 2 17970076749126976371
3060560 45 18341043017448214743
3250762 1 17974867360360886954
3286 77 18186522128762773527
4175511 71 18340781342412649932
474 4 18338507672335453752
526903 126 17622726831425666745
63268167 104 18410018757686443088
6992083 37 17986967266406371346
7364860 26 18341895255123856604
74978 22 18411423946321204287
7832392 63 18267862787868109569
81228 2 18047200644307350056
84936 182 18127125496902299649
9981440 41 17693082381389828080

>  <PUBCHEM_SHAPE_MULTIPOLES>
303.48
5.75
3.49
1.08
3.23
4.93
-0.05
-1.29
1.41
-3.8
-0.15
0.23
-0.3
-0.05

>  <PUBCHEM_SHAPE_SELFOVERLAP>
609.206

>  <PUBCHEM_SHAPE_VOLUME>
178.5

>  <PUBCHEM_COORDINATE_TYPE>
2
5
10

$$$$
