68459150
 OpenBabel01182520543D

 32 33  0  0  0  0  0  0  0  0999 V2000
   -0.0465    2.3054    0.4520 O   0  0  0  0  0  0  0  0  0  0  0  0
   -4.2411   -1.1930   -0.7814 N   0  0  0  0  0  0  0  0  0  0  0  0
   -1.0344    0.2083    0.4031 N   0  0  0  0  0  0  0  0  0  0  0  0
    3.6519    0.6526   -0.6072 N   0  0  0  0  0  0  0  0  0  0  0  0
    5.1336   -1.1984   -0.3725 N   0  0  0  0  0  0  0  0  0  0  0  0
   -2.3981    0.6626    0.5517 C   0  0  0  0  0  0  0  0  0  0  0  0
   -3.2369   -0.3619    1.3195 C   0  0  0  0  0  0  0  0  0  0  0  0
   -3.0346    0.9678   -0.8072 C   0  0  0  0  0  0  0  0  0  0  0  0
   -3.5806   -1.5824    0.4641 C   0  0  0  0  0  0  0  0  0  0  0  0
   -3.3978   -0.3026   -1.5786 C   0  0  0  0  0  0  0  0  0  0  0  0
    0.0387    1.0832    0.3657 C   0  0  0  0  0  0  0  0  0  0  0  0
    1.3746    0.4600    0.1816 C   0  0  0  0  0  0  0  0  0  0  0  0
    1.6212   -0.8438    0.5974 C   0  0  0  0  0  0  0  0  0  0  0  0
    2.4142    1.1596   -0.4099 C   0  0  0  0  0  0  0  0  0  0  0  0
    2.8819   -1.4001    0.4116 C   0  0  0  0  0  0  0  0  0  0  0  0
    3.8541   -0.6173   -0.1902 C   0  0  0  0  0  0  0  0  0  0  0  0
   -2.3699    1.5913    1.1352 H   0  0  0  0  0  0  0  0  0  0  0  0
   -4.1703    0.1154    1.6458 H   0  0  0  0  0  0  0  0  0  0  0  0
   -2.7121   -0.6861    2.2263 H   0  0  0  0  0  0  0  0  0  0  0  0
   -2.3680    1.5880   -1.4182 H   0  0  0  0  0  0  0  0  0  0  0  0
   -3.9495    1.5530   -0.6446 H   0  0  0  0  0  0  0  0  0  0  0  0
   -2.6825   -2.1732    0.2486 H   0  0  0  0  0  0  0  0  0  0  0  0
   -4.2564   -2.2327    1.0306 H   0  0  0  0  0  0  0  0  0  0  0  0
   -3.9401   -0.0243   -2.4889 H   0  0  0  0  0  0  0  0  0  0  0  0
   -2.4899   -0.8287   -1.8976 H   0  0  0  0  0  0  0  0  0  0  0  0
   -4.4549   -2.0291   -1.3245 H   0  0  0  0  0  0  0  0  0  0  0  0
   -0.8905   -0.7790    0.2199 H   0  0  0  0  0  0  0  0  0  0  0  0
    0.8664   -1.4467    1.0932 H   0  0  0  0  0  0  0  0  0  0  0  0
    2.2883    2.1793   -0.7606 H   0  0  0  0  0  0  0  0  0  0  0  0
    3.0835   -2.4151    0.7383 H   0  0  0  0  0  0  0  0  0  0  0  0
    5.4318   -1.9193    0.2730 H   0  0  0  0  0  0  0  0  0  0  0  0
    5.8426   -0.6207   -0.8070 H   0  0  0  0  0  0  0  0  0  0  0  0
  1 11  2  0  0  0  0
  2  9  1  0  0  0  0
  2 10  1  0  0  0  0
  2 26  1  0  0  0  0
  3  6  1  0  0  0  0
  3 11  1  0  0  0  0
  3 27  1  0  0  0  0
  4 14  1  0  0  0  0
  4 16  2  0  0  0  0
  5 16  1  0  0  0  0
  5 31  1  0  0  0  0
  5 32  1  0  0  0  0
  6  7  1  0  0  0  0
  6  8  1  0  0  0  0
  6 17  1  0  0  0  0
  7  9  1  0  0  0  0
  7 18  1  0  0  0  0
  7 19  1  0  0  0  0
  8 10  1  0  0  0  0
  8 20  1  0  0  0  0
  8 21  1  0  0  0  0
  9 22  1  0  0  0  0
  9 23  1  0  0  0  0
 10 24  1  0  0  0  0
 10 25  1  0  0  0  0
 11 12  1  0  0  0  0
 12 13  1  0  0  0  0
 12 14  2  0  0  0  0
 13 15  2  0  0  0  0
 13 28  1  0  0  0  0
 14 29  1  0  0  0  0
 15 16  1  0  0  0  0
 15 30  1  0  0  0  0
M  END
>  <PUBCHEM_COMPOUND_CID>
68459150

>  <PUBCHEM_CONFORMER_RMSD>
0.6

>  <PUBCHEM_CONFORMER_DIVERSEORDER>
2
19
16
3
22
17
9
14
12
7
10
1
21
18
13
20
11
15
4
6
5
8

>  <PUBCHEM_MMFF94_PARTIAL_CHARGES>
21
1 -0.57
10 0.27
11 0.54
12 0.09
13 -0.15
14 0.16
15 -0.15
16 0.41
2 -0.9
26 0.36
27 0.37
28 0.15
29 0.15
3 -0.73
30 0.15
31 0.4
32 0.4
4 -0.62
5 -0.9
6 0.3
9 0.27

>  <PUBCHEM_EFFECTIVE_ROTOR_COUNT>
4.2

>  <PUBCHEM_PHARMACOPHORE_FEATURES>
8
1 1 acceptor
1 2 cation
1 2 donor
1 3 donor
1 5 donor
3 4 5 16 cation
6 2 6 7 8 9 10 rings
6 4 12 13 14 15 16 rings

>  <PUBCHEM_HEAVY_ATOM_COUNT>
16

>  <PUBCHEM_ATOM_DEF_STEREO_COUNT>
0

>  <PUBCHEM_ATOM_UDEF_STEREO_COUNT>
0

>  <PUBCHEM_BOND_DEF_STEREO_COUNT>
0

>  <PUBCHEM_BOND_UDEF_STEREO_COUNT>
0

>  <PUBCHEM_ISOTOPIC_ATOM_COUNT>
0

>  <PUBCHEM_COMPONENT_COUNT>
1

>  <PUBCHEM_CACTVS_TAUTO_COUNT>
7

>  <PUBCHEM_CONFORMER_ID>
04149A8E00000002

>  <PUBCHEM_MMFF94_ENERGY>
32.1091

>  <PUBCHEM_FEATURE_SELFOVERLAP>
40.596

>  <PUBCHEM_SHAPE_FINGERPRINT>
10498660 4 15430022271714045455
11046707 91 17988641878412898338
11137873 295 18408321082127256875
11543360 7 16660934360544925430
11578080 2 17774420746962126969
11806522 49 18409169892398378576
12251169 10 12103843484061997433
12553582 1 18411136909424863347
13296908 3 18412259545161971865
13583140 156 14045735976517660971
13675066 3 11312054340368073522
13705890 14 18113901572039275736
14123260 362 12901544624632527015
14576447 43 18409165502731149750
15188451 53 15554151667281321015
15239191 94 18060420248258667823
15375462 189 18343309179589690153
1798214 20 18411129229986492495
18186145 218 17240767280566804976
18915474 69 18341049700422127654
19422 9 18272378576311875336
19433438 38 17458344130397087115
200 152 18409166589088480040
20112054 13 9655578517219720113
20281475 54 18272091556706251122
20361792 2 18131062753720577925
20645477 70 18410008853381218838
20671657 53 18343302608458915273
20871999 31 17168140144354290895
21065199 12 12103570796477539901
21713013 43 17967530211852110399
221490 88 18189625010674108306
22485316 2 18343019986461971672
22646028 1 18202001040309678654
22646028 28 18273213101437335559
23402539 116 18410576141794752418
23402655 69 18040997280854265860
23403322 49 18410572877298061975
23557571 272 16226055491731190079
23559900 14 18335695044830934416
27216 239 10447927283011196495
2838139 119 14491061375245556126
2871803 45 18114459050114879763
3268164 11 15357976802426945699
4028521 119 15574984057973407071
465052 167 18129386076267350615
4921388 177 16588031229639324115
57096353 35 18335151898908268668
602551 16 16128371614460192310

>  <PUBCHEM_SHAPE_MULTIPOLES>
303.48
9.25
1.69
1.09
2.93
0.22
-0.15
-4.02
-2.17
0.05
0.15
-1.11
-0.05
-0.02

>  <PUBCHEM_SHAPE_SELFOVERLAP>
631.321

>  <PUBCHEM_SHAPE_VOLUME>
169.7

>  <PUBCHEM_COORDINATE_TYPE>
2
5
10

$$$$
