68522357
 OpenBabel01182520543D

 28 28  0  0  0  0  0  0  0  0999 V2000
    2.7567    0.6693    0.2051 S   0  0  0  0  0  0  0  0  0  0  0  0
    2.1972    1.8281   -0.4651 O   0  0  0  0  0  0  0  0  0  0  0  0
    3.9695    0.8280    0.9907 O   0  0  0  0  0  0  0  0  0  0  0  0
   -4.2590    1.0746   -0.9173 O   0  0  0  0  0  0  0  0  0  0  0  0
    3.0423   -0.5686   -0.9596 N   0  0  0  0  0  0  0  0  0  0  0  0
    1.5853   -0.0517    1.2401 N   0  0  0  0  0  0  0  0  0  0  0  0
   -0.2514    1.0597    0.2386 N   0  0  0  0  0  0  0  0  0  0  0  0
   -4.6207   -1.0301   -0.0817 N   0  0  0  0  0  0  0  0  0  0  0  0
    0.1990   -0.0568    0.8537 C   0  0  0  0  0  0  0  0  0  0  0  0
    3.5561   -1.8721   -0.4723 C   0  0  0  0  0  0  0  0  0  0  0  0
    2.1113   -0.7170   -2.1034 C   0  0  0  0  0  0  0  0  0  0  0  0
   -0.5865   -1.1673    1.1178 C   0  0  0  0  0  0  0  0  0  0  0  0
   -2.4200    0.0015    0.0897 C   0  0  0  0  0  0  0  0  0  0  0  0
   -1.9199   -1.1297    0.7253 C   0  0  0  0  0  0  0  0  0  0  0  0
   -1.5527    1.0596   -0.1283 C   0  0  0  0  0  0  0  0  0  0  0  0
   -3.8075    0.0723   -0.3334 C   0  0  0  0  0  0  0  0  0  0  0  0
    1.8900   -0.8548    1.8049 H   0  0  0  0  0  0  0  0  0  0  0  0
    4.3113   -1.7247    0.3046 H   0  0  0  0  0  0  0  0  0  0  0  0
    4.0367   -2.4114   -1.2945 H   0  0  0  0  0  0  0  0  0  0  0  0
    2.7401   -2.4820   -0.0744 H   0  0  0  0  0  0  0  0  0  0  0  0
    1.8490    0.2599   -2.5177 H   0  0  0  0  0  0  0  0  0  0  0  0
    1.2016   -1.2390   -1.7950 H   0  0  0  0  0  0  0  0  0  0  0  0
    2.5943   -1.2880   -2.9026 H   0  0  0  0  0  0  0  0  0  0  0  0
   -0.1845   -2.0450    1.6129 H   0  0  0  0  0  0  0  0  0  0  0  0
   -2.5133   -2.0100    0.9418 H   0  0  0  0  0  0  0  0  0  0  0  0
   -1.8738    1.9735   -0.6187 H   0  0  0  0  0  0  0  0  0  0  0  0
   -4.3306   -1.8819    0.3815 H   0  0  0  0  0  0  0  0  0  0  0  0
   -5.5930   -1.0098   -0.3731 H   0  0  0  0  0  0  0  0  0  0  0  0
  1  2  2  0  0  0  0
  1  3  2  0  0  0  0
  1  5  1  0  0  0  0
  1  6  1  0  0  0  0
  4 16  2  0  0  0  0
  5 10  1  0  0  0  0
  5 11  1  0  0  0  0
  6  9  1  0  0  0  0
  6 17  1  0  0  0  0
  7  9  2  0  0  0  0
  7 15  1  0  0  0  0
  8 16  1  0  0  0  0
  8 27  1  0  0  0  0
  8 28  1  0  0  0  0
  9 12  1  0  0  0  0
 10 18  1  0  0  0  0
 10 19  1  0  0  0  0
 10 20  1  0  0  0  0
 11 21  1  0  0  0  0
 11 22  1  0  0  0  0
 11 23  1  0  0  0  0
 12 14  2  0  0  0  0
 12 24  1  0  0  0  0
 13 14  1  0  0  0  0
 13 15  2  0  0  0  0
 13 16  1  0  0  0  0
 14 25  1  0  0  0  0
 15 26  1  0  0  0  0
M  END
>  <PUBCHEM_COMPOUND_CID>
68522357

>  <PUBCHEM_CONFORMER_RMSD>
0.6

>  <PUBCHEM_CONFORMER_DIVERSEORDER>
2
7
33
52
40
51
34
1
58
53
25
42
50
57
4
48
16
54
39
56
15
59
26
31
22
9
43
46
55
32
44
6
37
49
5
60
47
38
45
18
10
20
21
28
17
19
12
3
27
14
24
35
41
11
8
30
23
36
13
29

>  <PUBCHEM_MMFF94_PARTIAL_CHARGES>
22
1 1.58
10 0.36
11 0.36
12 -0.15
13 0.09
14 -0.15
15 0.16
16 0.54
17 0.42
2 -0.65
24 0.15
25 0.15
26 0.15
27 0.37
28 0.37
3 -0.65
4 -0.57
5 -0.85
6 -0.76
7 -0.62
8 -0.8
9 0.51

>  <PUBCHEM_EFFECTIVE_ROTOR_COUNT>
4

>  <PUBCHEM_PHARMACOPHORE_FEATURES>
5
1 4 acceptor
1 6 donor
1 7 acceptor
1 8 donor
6 7 9 12 13 14 15 rings

>  <PUBCHEM_HEAVY_ATOM_COUNT>
16

>  <PUBCHEM_ATOM_DEF_STEREO_COUNT>
0

>  <PUBCHEM_ATOM_UDEF_STEREO_COUNT>
0

>  <PUBCHEM_BOND_DEF_STEREO_COUNT>
0

>  <PUBCHEM_BOND_UDEF_STEREO_COUNT>
0

>  <PUBCHEM_ISOTOPIC_ATOM_COUNT>
0

>  <PUBCHEM_COMPONENT_COUNT>
1

>  <PUBCHEM_CACTVS_TAUTO_COUNT>
7

>  <PUBCHEM_CONFORMER_ID>
0415917500000002

>  <PUBCHEM_MMFF94_ENERGY>
48.1135

>  <PUBCHEM_FEATURE_SELFOVERLAP>
25.372

>  <PUBCHEM_SHAPE_FINGERPRINT>
10130415 120 13470403400886374291
12616999 72 17418380220280794604
13705890 14 18060700610712176739
13760787 19 15482672398905433081
14115302 16 17313106371240688506
14251717 144 16988844951596577334
14350558 41 17275108310178368510
15375358 24 18411977000922916968
15375462 189 15195566797062680063
15775835 57 16950285134892830900
16945 1 18114189622231076337
18186145 218 18334294236799220361
19862831 5 18113903719195733193
200 152 17275108310278595210
20201158 50 18341900696884181498
20233049 118 17531238452973805996
20279233 1 18411704309207067714
20645477 70 17917997165570472094
22485316 2 17632572768941457669
2255824 54 15697425754214741080
22646028 28 15554176873906356030
23402539 116 18336531794253432196
23526113 38 18341613762887974235
23557571 272 18115597096036137898
23559900 14 18409168797076333450
251288 83 12535333585235655006
2748010 2 17970635318545864041
4990 188 18409727365925638563
633830 44 18334853905597905901
9709674 26 18336266841926271059
9882013 296 9799396802938873479

>  <PUBCHEM_SHAPE_MULTIPOLES>
295.59
7.95
1.55
1.33
3.71
0.07
-0.36
0.66
-1.73
-0.78
-0.1
-0.78
0.25
0.96

>  <PUBCHEM_SHAPE_SELFOVERLAP>
589.786

>  <PUBCHEM_SHAPE_VOLUME>
176.9

>  <PUBCHEM_COORDINATE_TYPE>
2
5
10

$$$$
