68570515
 OpenBabel01182520543D

 17 17  0  0  0  0  0  0  0  0999 V2000
   -2.9145   -1.4856    0.0016 F   0  0  0  0  0  0  0  0  0  0  0  0
    2.4456   -0.8334   -1.1189 O   0  0  0  0  0  0  0  0  0  0  0  0
   -1.1128    1.6629    0.0207 N   0  0  0  0  0  0  0  0  0  0  0  0
    1.2124    2.1255   -0.0026 N   0  0  0  0  0  0  0  0  0  0  0  0
    2.4685   -0.8791    1.1737 N   0  0  0  0  0  0  0  0  0  0  0  0
    0.4710   -0.1631   -0.0237 C   0  0  0  0  0  0  0  0  0  0  0  0
    0.1517    1.1850   -0.0017 C   0  0  0  0  0  0  0  0  0  0  0  0
   -0.5746   -1.0798   -0.0227 C   0  0  0  0  0  0  0  0  0  0  0  0
   -1.8890   -0.6267    0.0000 C   0  0  0  0  0  0  0  0  0  0  0  0
    1.8442   -0.6479   -0.0475 C   0  0  0  0  0  0  0  0  0  0  0  0
   -2.1027    0.7421    0.0210 C   0  0  0  0  0  0  0  0  0  0  0  0
   -0.3786   -2.1486   -0.0398 H   0  0  0  0  0  0  0  0  0  0  0  0
   -3.1093    1.1464    0.0392 H   0  0  0  0  0  0  0  0  0  0  0  0
    2.0869    1.8700    0.4392 H   0  0  0  0  0  0  0  0  0  0  0  0
    0.9488    3.1034    0.0095 H   0  0  0  0  0  0  0  0  0  0  0  0
    1.9955   -0.7256    2.0587 H   0  0  0  0  0  0  0  0  0  0  0  0
    3.4263   -1.2110    1.2156 H   0  0  0  0  0  0  0  0  0  0  0  0
  1  9  1  0  0  0  0
  2 10  2  0  0  0  0
  3  7  1  0  0  0  0
  3 11  2  0  0  0  0
  4  7  1  0  0  0  0
  4 14  1  0  0  0  0
  4 15  1  0  0  0  0
  5 10  1  0  0  0  0
  5 16  1  0  0  0  0
  5 17  1  0  0  0  0
  6  7  2  0  0  0  0
  6  8  1  0  0  0  0
  6 10  1  0  0  0  0
  8  9  2  0  0  0  0
  8 12  1  0  0  0  0
  9 11  1  0  0  0  0
 11 13  1  0  0  0  0
M  END
>  <PUBCHEM_COMPOUND_CID>
68570515

>  <PUBCHEM_CONFORMER_RMSD>
0.4

>  <PUBCHEM_CONFORMER_DIVERSEORDER>
2
3
1

>  <PUBCHEM_MMFF94_PARTIAL_CHARGES>
17
1 -0.19
10 0.54
11 0.16
12 0.15
13 0.15
14 0.4
15 0.4
16 0.37
17 0.37
2 -0.57
3 -0.62
4 -0.9
5 -0.8
6 0.09
7 0.41
8 -0.15
9 0.19

>  <PUBCHEM_EFFECTIVE_ROTOR_COUNT>
1

>  <PUBCHEM_PHARMACOPHORE_FEATURES>
6
1 2 acceptor
1 3 acceptor
1 4 cation
1 4 donor
1 5 donor
6 3 6 7 8 9 11 rings

>  <PUBCHEM_HEAVY_ATOM_COUNT>
11

>  <PUBCHEM_ATOM_DEF_STEREO_COUNT>
0

>  <PUBCHEM_ATOM_UDEF_STEREO_COUNT>
0

>  <PUBCHEM_BOND_DEF_STEREO_COUNT>
0

>  <PUBCHEM_BOND_UDEF_STEREO_COUNT>
0

>  <PUBCHEM_ISOTOPIC_ATOM_COUNT>
0

>  <PUBCHEM_COMPONENT_COUNT>
1

>  <PUBCHEM_CACTVS_TAUTO_COUNT>
7

>  <PUBCHEM_CONFORMER_ID>
04164D9300000002

>  <PUBCHEM_MMFF94_ENERGY>
39.412

>  <PUBCHEM_FEATURE_SELFOVERLAP>
30.446

>  <PUBCHEM_SHAPE_FINGERPRINT>
10857977 72 18342446024328350602
12716758 59 17980481165714938862
14128692 85 18339372932178162844
15310529 11 16733561402726938917
161256 15 18338804544870140661
16945 1 18266741290228716833
18185500 45 18189616051140064162
20645477 70 18196086875430059623
20653091 64 18335421321800415360
21040471 1 17834395618389602988
23552423 10 18188495794946959501
241688 4 18408604760090180017
2748010 2 18338230565720265093
29004967 10 17060050407096005586
369184 2 18262789653891203178
5084963 1 17988933266258810067
528862 383 18121492715854199381

>  <PUBCHEM_SHAPE_MULTIPOLES>
198.29
3.52
1.81
0.77
0.01
0.79
-0.02
-1.4
-0.06
0.24
-0.01
-0.49
-0.16
-0.03

>  <PUBCHEM_SHAPE_SELFOVERLAP>
418.52

>  <PUBCHEM_SHAPE_VOLUME>
111.9

>  <PUBCHEM_COORDINATE_TYPE>
2
5
10

$$$$
