68699848
 OpenBabel01182520543D

 29 29  0  0  0  0  0  0  0  0999 V2000
    0.2113   -2.1869   -1.2746 O   0  0  0  0  0  0  0  0  0  0  0  0
    2.1976    0.1256    0.1547 N   0  0  0  0  0  0  0  0  0  0  0  0
    0.8029    2.0397    0.0908 N   0  0  0  0  0  0  0  0  0  0  0  0
   -0.0742   -2.3124    0.9972 N   0  0  0  0  0  0  0  0  0  0  0  0
   -1.4388    0.4066   -0.2582 C   0  0  0  0  0  0  0  0  0  0  0  0
   -0.1744   -0.1596   -0.1394 C   0  0  0  0  0  0  0  0  0  0  0  0
    0.9044    0.6929    0.0320 C   0  0  0  0  0  0  0  0  0  0  0  0
   -2.6552   -0.4395   -0.4463 C   0  0  0  0  0  0  0  0  0  0  0  0
   -1.5837    1.7884   -0.2027 C   0  0  0  0  0  0  0  0  0  0  0  0
   -3.4682   -0.5774    0.8373 C   0  0  0  0  0  0  0  0  0  0  0  0
   -0.4419    2.5537   -0.0284 C   0  0  0  0  0  0  0  0  0  0  0  0
   -0.0044   -1.6076   -0.1984 C   0  0  0  0  0  0  0  0  0  0  0  0
    3.0067   -0.1006   -1.0220 C   0  0  0  0  0  0  0  0  0  0  0  0
    2.7179   -0.2229    1.4580 C   0  0  0  0  0  0  0  0  0  0  0  0
   -3.2875    0.0154   -1.2204 H   0  0  0  0  0  0  0  0  0  0  0  0
   -2.4163   -1.4358   -0.8325 H   0  0  0  0  0  0  0  0  0  0  0  0
   -2.5539    2.2652   -0.2926 H   0  0  0  0  0  0  0  0  0  0  0  0
   -2.8764   -1.0432    1.6322 H   0  0  0  0  0  0  0  0  0  0  0  0
   -4.3497   -1.2017    0.6596 H   0  0  0  0  0  0  0  0  0  0  0  0
   -3.8132    0.3963    1.2011 H   0  0  0  0  0  0  0  0  0  0  0  0
   -0.5009    3.6360    0.0212 H   0  0  0  0  0  0  0  0  0  0  0  0
    4.0119   -0.4458   -0.7568 H   0  0  0  0  0  0  0  0  0  0  0  0
    3.1187    0.8256   -1.5960 H   0  0  0  0  0  0  0  0  0  0  0  0
    2.5556   -0.8569   -1.6714 H   0  0  0  0  0  0  0  0  0  0  0  0
    3.2692   -1.1684    1.4180 H   0  0  0  0  0  0  0  0  0  0  0  0
    1.9207   -0.3377    2.2006 H   0  0  0  0  0  0  0  0  0  0  0  0
    3.3986    0.5586    1.8108 H   0  0  0  0  0  0  0  0  0  0  0  0
    0.0431   -3.3199    1.0167 H   0  0  0  0  0  0  0  0  0  0  0  0
   -0.2442   -1.8517    1.8856 H   0  0  0  0  0  0  0  0  0  0  0  0
  1 12  2  0  0  0  0
  2  7  1  0  0  0  0
  2 13  1  0  0  0  0
  2 14  1  0  0  0  0
  3  7  2  0  0  0  0
  3 11  1  0  0  0  0
  4 12  1  0  0  0  0
  4 28  1  0  0  0  0
  4 29  1  0  0  0  0
  5  6  2  0  0  0  0
  5  8  1  0  0  0  0
  5  9  1  0  0  0  0
  6  7  1  0  0  0  0
  6 12  1  0  0  0  0
  8 10  1  0  0  0  0
  8 15  1  0  0  0  0
  8 16  1  0  0  0  0
  9 11  2  0  0  0  0
  9 17  1  0  0  0  0
 10 18  1  0  0  0  0
 10 19  1  0  0  0  0
 10 20  1  0  0  0  0
 11 21  1  0  0  0  0
 13 22  1  0  0  0  0
 13 23  1  0  0  0  0
 13 24  1  0  0  0  0
 14 25  1  0  0  0  0
 14 26  1  0  0  0  0
 14 27  1  0  0  0  0
M  END
>  <PUBCHEM_COMPOUND_CID>
68699848

>  <PUBCHEM_CONFORMER_RMSD>
0.6

>  <PUBCHEM_CONFORMER_DIVERSEORDER>
1
5
3
2
6
4

>  <PUBCHEM_MMFF94_PARTIAL_CHARGES>
17
1 -0.57
11 0.16
12 0.54
13 0.37
14 0.37
17 0.15
2 -0.84
21 0.15
28 0.37
29 0.37
3 -0.62
4 -0.8
5 -0.14
6 0.09
7 0.41
8 0.14
9 -0.15

>  <PUBCHEM_EFFECTIVE_ROTOR_COUNT>
3

>  <PUBCHEM_PHARMACOPHORE_FEATURES>
5
1 1 acceptor
1 10 hydrophobe
1 4 donor
3 2 3 7 cation
6 3 5 6 7 9 11 rings

>  <PUBCHEM_HEAVY_ATOM_COUNT>
14

>  <PUBCHEM_ATOM_DEF_STEREO_COUNT>
0

>  <PUBCHEM_ATOM_UDEF_STEREO_COUNT>
0

>  <PUBCHEM_BOND_DEF_STEREO_COUNT>
0

>  <PUBCHEM_BOND_UDEF_STEREO_COUNT>
0

>  <PUBCHEM_ISOTOPIC_ATOM_COUNT>
0

>  <PUBCHEM_COMPONENT_COUNT>
1

>  <PUBCHEM_CACTVS_TAUTO_COUNT>
2

>  <PUBCHEM_CONFORMER_ID>
041846C800000001

>  <PUBCHEM_MMFF94_ENERGY>
64.1896

>  <PUBCHEM_FEATURE_SELFOVERLAP>
25.371

>  <PUBCHEM_SHAPE_FINGERPRINT>
10219947 1 18340773727540940665
10353120 184 18410578391867167821
11132069 177 18342453759675161939
11680986 33 17906178704024879097
12382932 28 18267584611547608329
12423570 1 17390504087059838628
12524768 44 18125717031086009748
13172582 1 18340199790749985449
13380535 21 17982184317990527685
13380535 76 17977929208075495661
14614273 12 18044927983220700261
15852999 172 17396942831272911012
161256 15 18055366746809568431
16945 1 18411411830302617943
193761 8 17834677097835269893
20511035 2 17904210565489710487
20645476 183 17676774257396295750
20871998 184 18341036437673887168
21501502 16 18050849910082357517
22344851 341 17978518533111735051
22802520 49 17913781517803977414
2334 1 17834390494688797767
23419403 2 15379840380185335512
23552423 10 17829896433977998468
2748010 2 18125157134922726015
43471831 8 18190171287686156746
5084963 1 18131636685604454392
53812653 11 18270126828201133277
53812653 8 18333735710640910996
53812654 25 18267005327648677352

>  <PUBCHEM_SHAPE_MULTIPOLES>
267.3
4.08
2.45
1.07
0.27
0.36
-0.11
-0.54
-0.59
0.42
0.07
-0.48
-0.41
0.15

>  <PUBCHEM_SHAPE_SELFOVERLAP>
548.601

>  <PUBCHEM_SHAPE_VOLUME>
155.6

>  <PUBCHEM_COORDINATE_TYPE>
2
5
10

$$$$
