68757947
 OpenBabel01182520543D

 27 28  0  0  1  0  0  0  0  0999 V2000
    0.2632   -2.3715   -0.8888 O   0  0  0  0  0  0  0  0  0  0  0  0
    1.0251    0.5443    0.6773 N   0  0  0  0  0  0  0  0  0  0  0  0
   -0.8906    1.8433    0.1642 N   0  0  0  0  0  0  0  0  0  0  0  0
   -0.4394   -2.5311    1.2882 N   0  0  0  0  0  0  0  0  0  0  0  0
    2.0786   -0.0460   -0.1698 C   0  0  0  0  0  0  0  0  0  0  0  0
    2.3109    0.4328   -1.5728 C   0  0  0  0  0  0  0  0  0  0  0  0
    3.3271    0.7158   -0.5056 C   0  0  0  0  0  0  0  0  0  0  0  0
   -0.3256    0.6183    0.2534 C   0  0  0  0  0  0  0  0  0  0  0  0
    1.4064    1.0704    1.9789 C   0  0  0  0  0  0  0  0  0  0  0  0
   -0.9860   -0.5637   -0.0411 C   0  0  0  0  0  0  0  0  0  0  0  0
   -2.3114   -0.4834   -0.4537 C   0  0  0  0  0  0  0  0  0  0  0  0
   -0.3510   -1.8699    0.0677 C   0  0  0  0  0  0  0  0  0  0  0  0
   -2.1801    1.8818   -0.2400 C   0  0  0  0  0  0  0  0  0  0  0  0
   -2.9272    0.7589   -0.5577 C   0  0  0  0  0  0  0  0  0  0  0  0
    2.2485   -1.0927    0.0579 H   0  0  0  0  0  0  0  0  0  0  0  0
    1.7296    1.2681   -1.9433 H   0  0  0  0  0  0  0  0  0  0  0  0
    2.5564   -0.3095   -2.3223 H   0  0  0  0  0  0  0  0  0  0  0  0
    4.2606    0.1675   -0.5409 H   0  0  0  0  0  0  0  0  0  0  0  0
    3.4215    1.7394   -0.1646 H   0  0  0  0  0  0  0  0  0  0  0  0
    2.4002    0.7194    2.2767 H   0  0  0  0  0  0  0  0  0  0  0  0
    0.6990    0.7459    2.7498 H   0  0  0  0  0  0  0  0  0  0  0  0
    1.4231    2.1649    1.9571 H   0  0  0  0  0  0  0  0  0  0  0  0
   -2.8744   -1.3808   -0.6965 H   0  0  0  0  0  0  0  0  0  0  0  0
   -2.6140    2.8741   -0.3047 H   0  0  0  0  0  0  0  0  0  0  0  0
   -3.9594    0.8456   -0.8771 H   0  0  0  0  0  0  0  0  0  0  0  0
   -0.9293   -2.1327    2.0828 H   0  0  0  0  0  0  0  0  0  0  0  0
   -0.0094   -3.4403    1.4213 H   0  0  0  0  0  0  0  0  0  0  0  0
  1 12  2  0  0  0  0
  2  5  1  0  0  0  0
  2  8  1  0  0  0  0
  2  9  1  0  0  0  0
  3  8  1  0  0  0  0
  3 13  2  0  0  0  0
  4 12  1  0  0  0  0
  4 26  1  0  0  0  0
  4 27  1  0  0  0  0
  5  6  1  0  0  0  0
  5  7  1  0  0  0  0
  5 15  1  0  0  0  0
  6  7  1  0  0  0  0
  6 16  1  0  0  0  0
  6 17  1  0  0  0  0
  7 18  1  0  0  0  0
  7 19  1  0  0  0  0
  8 10  2  0  0  0  0
  9 20  1  0  0  0  0
  9 21  1  0  0  0  0
  9 22  1  0  0  0  0
 10 11  1  0  0  0  0
 10 12  1  0  0  0  0
 11 14  2  0  0  0  0
 11 23  1  0  0  0  0
 13 14  1  0  0  0  0
 13 24  1  0  0  0  0
 14 25  1  0  0  0  0
M  END
>  <PUBCHEM_COMPOUND_CID>
68757947

>  <PUBCHEM_CONFORMER_RMSD>
0.6

>  <PUBCHEM_CONFORMER_DIVERSEORDER>
2
13
16
5
10
9
14
15
12
7
6
8
1
11
4
3

>  <PUBCHEM_MMFF94_PARTIAL_CHARGES>
24
1 -0.57
10 0.09
11 -0.15
12 0.54
13 0.16
14 -0.15
15 0.1
16 0.1
17 0.1
18 0.1
19 0.1
2 -0.64
23 0.15
24 0.15
25 0.15
26 0.37
27 0.37
3 -0.62
4 -0.8
5 0.07
6 -0.2
7 -0.2
8 0.41
9 0.37

>  <PUBCHEM_EFFECTIVE_ROTOR_COUNT>
3.6

>  <PUBCHEM_PHARMACOPHORE_FEATURES>
5
1 1 acceptor
1 2 cation
1 3 acceptor
1 4 donor
6 3 8 10 11 13 14 rings

>  <PUBCHEM_HEAVY_ATOM_COUNT>
14

>  <PUBCHEM_ATOM_DEF_STEREO_COUNT>
0

>  <PUBCHEM_ATOM_UDEF_STEREO_COUNT>
0

>  <PUBCHEM_BOND_DEF_STEREO_COUNT>
0

>  <PUBCHEM_BOND_UDEF_STEREO_COUNT>
0

>  <PUBCHEM_ISOTOPIC_ATOM_COUNT>
0

>  <PUBCHEM_COMPONENT_COUNT>
1

>  <PUBCHEM_CACTVS_TAUTO_COUNT>
2

>  <PUBCHEM_CONFORMER_ID>
041929BB00000002

>  <PUBCHEM_MMFF94_ENERGY>
60.4699

>  <PUBCHEM_FEATURE_SELFOVERLAP>
25.372

>  <PUBCHEM_SHAPE_FINGERPRINT>
11129358 1 11508367773093429783
116883 192 17407948255868100071
12423570 1 12716078418917112640
12524768 44 17765141061964479137
12716758 59 18409730707304751824
13380535 21 18197786496930560369
13380535 220 17258779218117905709
13538477 17 17677600041930921354
13898156 1 17532913095118931360
14181834 199 17474063685199454439
14817 1 15037354418267203894
15207287 21 17703501160437936518
15775835 57 18341612568676198669
16945 1 18060414681970476625
18534176 82 18267600155007651388
19837323 101 18262535748246417740
20201158 50 17704358775159919364
20511035 2 17618759389782349469
20645476 183 17749100127691551491
20711985 344 18047464809875047218
21501502 16 18124026824511965397
22344851 341 18049732814737412387
22802520 49 18269848664749709118
23402539 116 18340476837842527444
23419403 2 14402616736567747414
23526113 38 17846787303792858366
23552423 10 17975411317968353501
23559900 14 18202001011378907812
2748010 2 17909543196720952199
430814 3 17748823016538640258
5084963 1 18115292376548507003
57177213 63 18189897517880385085
576247 118 17251199683161973778
7364860 26 17911789176833014815
81228 2 17978217585048638507

>  <PUBCHEM_SHAPE_MULTIPOLES>
267.3
3.99
2.29
1.32
0.98
1.34
-0.39
-1.76
1.35
-0.88
-0.34
0.82
-0.08
0.28

>  <PUBCHEM_SHAPE_SELFOVERLAP>
557.607

>  <PUBCHEM_SHAPE_VOLUME>
152.3

>  <PUBCHEM_COORDINATE_TYPE>
2
5
10

$$$$
