68756739
 OpenBabel01182520543D

 30 31  0  0  1  0  0  0  0  0999 V2000
   -0.0974   -2.4111    0.8668 O   0  0  0  0  0  0  0  0  0  0  0  0
    0.7929    0.4318   -0.8082 N   0  0  0  0  0  0  0  0  0  0  0  0
   -0.9864    1.8754   -0.1787 N   0  0  0  0  0  0  0  0  0  0  0  0
   -0.9407   -2.5356   -1.2620 N   0  0  0  0  0  0  0  0  0  0  0  0
    1.8661   -0.1977   -0.0972 C   0  0  0  0  0  0  0  0  0  0  0  0
    1.9219    0.2204    1.3869 C   0  0  0  0  0  0  0  0  0  0  0  0
    3.2102    0.5387   -0.2759 C   0  0  0  0  0  0  0  0  0  0  0  0
    3.4547    0.2969    1.2283 C   0  0  0  0  0  0  0  0  0  0  0  0
   -0.5217    0.6108   -0.2914 C   0  0  0  0  0  0  0  0  0  0  0  0
    1.0617    0.9199   -2.1654 C   0  0  0  0  0  0  0  0  0  0  0  0
   -1.2443   -0.5159    0.0666 C   0  0  0  0  0  0  0  0  0  0  0  0
   -2.5264   -0.3332    0.5729 C   0  0  0  0  0  0  0  0  0  0  0  0
   -0.7149   -1.8665   -0.0638 C   0  0  0  0  0  0  0  0  0  0  0  0
   -2.2364    2.0136    0.3173 C   0  0  0  0  0  0  0  0  0  0  0  0
   -3.0393    0.9526    0.7038 C   0  0  0  0  0  0  0  0  0  0  0  0
    1.9456   -1.2729   -0.2887 H   0  0  0  0  0  0  0  0  0  0  0  0
    1.5682   -0.5210    2.1082 H   0  0  0  0  0  0  0  0  0  0  0  0
    1.4752    1.1919    1.6312 H   0  0  0  0  0  0  0  0  0  0  0  0
    3.1485    1.6056   -0.5225 H   0  0  0  0  0  0  0  0  0  0  0  0
    3.9300    0.0613   -0.9465 H   0  0  0  0  0  0  0  0  0  0  0  0
    3.9686   -0.6464    1.4460 H   0  0  0  0  0  0  0  0  0  0  0  0
    3.9503    1.1078    1.7677 H   0  0  0  0  0  0  0  0  0  0  0  0
    1.9088    0.3966   -2.6215 H   0  0  0  0  0  0  0  0  0  0  0  0
    1.2773    1.9932   -2.1471 H   0  0  0  0  0  0  0  0  0  0  0  0
    0.1957    0.7514   -2.8157 H   0  0  0  0  0  0  0  0  0  0  0  0
   -3.1346   -1.1837    0.8693 H   0  0  0  0  0  0  0  0  0  0  0  0
   -2.5898    3.0362    0.3995 H   0  0  0  0  0  0  0  0  0  0  0  0
   -4.0359    1.1190    1.0961 H   0  0  0  0  0  0  0  0  0  0  0  0
   -0.5991   -3.4802   -1.4045 H   0  0  0  0  0  0  0  0  0  0  0  0
   -1.4480   -2.1087   -2.0305 H   0  0  0  0  0  0  0  0  0  0  0  0
  1 13  2  0  0  0  0
  2  5  1  0  0  0  0
  2  9  1  0  0  0  0
  2 10  1  0  0  0  0
  3  9  1  0  0  0  0
  3 14  2  0  0  0  0
  4 13  1  0  0  0  0
  4 29  1  0  0  0  0
  4 30  1  0  0  0  0
  5  6  1  0  0  0  0
  5  7  1  0  0  0  0
  5 16  1  0  0  0  0
  6  8  1  0  0  0  0
  6 17  1  0  0  0  0
  6 18  1  0  0  0  0
  7  8  1  0  0  0  0
  7 19  1  0  0  0  0
  7 20  1  0  0  0  0
  8 21  1  0  0  0  0
  8 22  1  0  0  0  0
  9 11  2  0  0  0  0
 10 23  1  0  0  0  0
 10 24  1  0  0  0  0
 10 25  1  0  0  0  0
 11 12  1  0  0  0  0
 11 13  1  0  0  0  0
 12 15  2  0  0  0  0
 12 26  1  0  0  0  0
 14 15  1  0  0  0  0
 14 27  1  0  0  0  0
 15 28  1  0  0  0  0
M  END
>  <PUBCHEM_COMPOUND_CID>
68756739

>  <PUBCHEM_CONFORMER_RMSD>
0.6

>  <PUBCHEM_CONFORMER_DIVERSEORDER>
1
27
22
10
32
9
23
31
30
29
28
24
33
6
18
34
5
16
11
14
15
21
20
19
12
17
2
26
25
7
13
8
3
4

>  <PUBCHEM_MMFF94_PARTIAL_CHARGES>
17
1 -0.57
10 0.37
11 0.09
12 -0.15
13 0.54
14 0.16
15 -0.15
2 -0.71
26 0.15
27 0.15
28 0.15
29 0.37
3 -0.62
30 0.37
4 -0.8
5 0.25
9 0.41

>  <PUBCHEM_EFFECTIVE_ROTOR_COUNT>
3.8

>  <PUBCHEM_PHARMACOPHORE_FEATURES>
6
1 1 acceptor
1 2 cation
1 3 acceptor
1 4 donor
4 5 6 7 8 rings
6 3 9 11 12 14 15 rings

>  <PUBCHEM_HEAVY_ATOM_COUNT>
15

>  <PUBCHEM_ATOM_DEF_STEREO_COUNT>
0

>  <PUBCHEM_ATOM_UDEF_STEREO_COUNT>
0

>  <PUBCHEM_BOND_DEF_STEREO_COUNT>
0

>  <PUBCHEM_BOND_UDEF_STEREO_COUNT>
0

>  <PUBCHEM_ISOTOPIC_ATOM_COUNT>
0

>  <PUBCHEM_COMPONENT_COUNT>
1

>  <PUBCHEM_CACTVS_TAUTO_COUNT>
2

>  <PUBCHEM_CONFORMER_ID>
0419250300000001

>  <PUBCHEM_MMFF94_ENERGY>
67.0183

>  <PUBCHEM_FEATURE_SELFOVERLAP>
30.446

>  <PUBCHEM_SHAPE_FINGERPRINT>
1 1 18054229830211631551
12423570 1 7778081001676821548
13538477 17 17969797464546436006
13581323 91 18410576218618854248
13839132 238 18201441333257149324
13898156 1 17970360418974159964
14817 1 14075472431794566022
15076042 46 18261120693897821490
15669948 3 18338519763026893052
15775835 57 18342459201277361505
15881359 60 17678150755564649415
16945 1 18271800263328813044
20510252 161 18343871012910072113
20511035 2 18192443969498790591
20524608 308 18131349747535098262
20645476 183 17460620209855893719
20871998 184 18270408316041945407
21061003 4 15502372322859897572
21524375 3 18341890732354502019
21947302 44 16988568952840097832
22112679 90 17979086199144969047
23236772 104 17896324786491149792
23382010 3 13541303183057262760
23402539 116 17916570072834811503
23419403 2 16888056891038841894
23559900 14 18201730514280655398
257057 1 17479438488762392567
27216 239 17057212722441052488
2748010 2 17539420821303190381
276578 36 18268440039798635913
305870 269 18196089945655643873
4072396 5 18334012775134517481
43471831 8 18334575694422352683
4663303 62 17768816364211368079
53812654 25 18266745877317073119
5706482 22 18341038636670684747
68419 9 17899151665108503652
7364860 26 17696477278180202095
77492 1 17821737164520925660
81228 2 18197205056552157707

>  <PUBCHEM_SHAPE_MULTIPOLES>
287.88
4.55
2.19
1.41
1.87
1.22
0.49
-1.66
-1.69
-1.43
0.27
0.77
-0.1
-0.39

>  <PUBCHEM_SHAPE_SELFOVERLAP>
605.589

>  <PUBCHEM_SHAPE_VOLUME>
162.8

>  <PUBCHEM_COORDINATE_TYPE>
2
5
10

$$$$
