68790144
 OpenBabel01182520543D

 19 20  0  0  0  0  0  0  0  0999 V2000
   -1.2331   -2.1484   -0.7318 O   0  0  0  0  0  0  0  0  0  0  0  0
   -0.5490    1.7972   -0.2293 N   0  0  0  0  0  0  0  0  0  0  0  0
    1.7314    1.3846    0.0022 N   0  0  0  0  0  0  0  0  0  0  0  0
   -2.0467   -0.6183    0.7754 N   0  0  0  0  0  0  0  0  0  0  0  0
    0.4713    0.8766   -0.0734 C   0  0  0  0  0  0  0  0  0  0  0  0
    0.2672   -0.5089   -0.0132 C   0  0  0  0  0  0  0  0  0  0  0  0
   -1.9101    1.4520   -0.5577 C   0  0  0  0  0  0  0  0  0  0  0  0
    1.3703   -1.3663    0.0830 C   0  0  0  0  0  0  0  0  0  0  0  0
   -1.0745   -1.1461   -0.0421 C   0  0  0  0  0  0  0  0  0  0  0  0
   -2.4540    0.5860    0.5348 C   0  0  0  0  0  0  0  0  0  0  0  0
    2.6508   -0.8403    0.1449 C   0  0  0  0  0  0  0  0  0  0  0  0
    2.7763    0.5320    0.1071 C   0  0  0  0  0  0  0  0  0  0  0  0
   -1.9731    0.9402   -1.5238 H   0  0  0  0  0  0  0  0  0  0  0  0
   -2.5209    2.3582   -0.6158 H   0  0  0  0  0  0  0  0  0  0  0  0
   -0.2789    2.7738   -0.2631 H   0  0  0  0  0  0  0  0  0  0  0  0
    1.2407   -2.4446    0.1273 H   0  0  0  0  0  0  0  0  0  0  0  0
   -3.2281    1.0223    1.1870 H   0  0  0  0  0  0  0  0  0  0  0  0
    3.5189   -1.4835    0.2275 H   0  0  0  0  0  0  0  0  0  0  0  0
    3.7518    1.0040    0.1589 H   0  0  0  0  0  0  0  0  0  0  0  0
  1  9  2  0  0  0  0
  2  5  1  0  0  0  0
  2  7  1  0  0  0  0
  2 15  1  0  0  0  0
  3  5  1  0  0  0  0
  3 12  2  0  0  0  0
  4  9  1  0  0  0  0
  4 10  2  0  0  0  0
  5  6  2  0  0  0  0
  6  8  1  0  0  0  0
  6  9  1  0  0  0  0
  7 10  1  0  0  0  0
  7 13  1  0  0  0  0
  7 14  1  0  0  0  0
  8 11  2  0  0  0  0
  8 16  1  0  0  0  0
 10 17  1  0  0  0  0
 11 12  1  0  0  0  0
 11 18  1  0  0  0  0
 12 19  1  0  0  0  0
M  END
>  <PUBCHEM_COMPOUND_CID>
68790144

>  <PUBCHEM_CONFORMER_RMSD>
0.4

>  <PUBCHEM_CONFORMER_DIVERSEORDER>
1
2

>  <PUBCHEM_MMFF94_PARTIAL_CHARGES>
17
1 -0.57
10 0.33
11 -0.15
12 0.16
15 0.4
16 0.15
17 0.06
18 0.15
19 0.15
2 -0.87
3 -0.62
4 -0.66
5 0.41
6 0.09
7 0.43
8 -0.15
9 0.69

>  <PUBCHEM_EFFECTIVE_ROTOR_COUNT>
0.4

>  <PUBCHEM_PHARMACOPHORE_FEATURES>
8
1 1 acceptor
1 2 cation
1 2 donor
1 3 acceptor
1 4 acceptor
1 4 donor
6 3 5 6 8 11 12 rings
7 2 4 5 6 7 9 10 rings

>  <PUBCHEM_HEAVY_ATOM_COUNT>
12

>  <PUBCHEM_ATOM_DEF_STEREO_COUNT>
0

>  <PUBCHEM_ATOM_UDEF_STEREO_COUNT>
0

>  <PUBCHEM_BOND_DEF_STEREO_COUNT>
0

>  <PUBCHEM_BOND_UDEF_STEREO_COUNT>
0

>  <PUBCHEM_ISOTOPIC_ATOM_COUNT>
0

>  <PUBCHEM_COMPONENT_COUNT>
1

>  <PUBCHEM_CACTVS_TAUTO_COUNT>
4

>  <PUBCHEM_CONFORMER_ID>
0419A78000000001

>  <PUBCHEM_MMFF94_ENERGY>
47.9354

>  <PUBCHEM_FEATURE_SELFOVERLAP>
40.659

>  <PUBCHEM_SHAPE_FINGERPRINT>
12524768 44 18411422769557973078
13380535 76 17903632982646450413
15775835 57 18339933687498299808
16945 1 18411134710522855188
17844478 74 18041294209117941825
18185500 45 17979918542205451327
20871998 184 18342462572948319719
21040471 1 18338794507668570436
21501502 16 18411415154828714620
23552423 10 18188491392774110724
23559900 14 18126572211717337126
241688 4 18122618624461701187
25 1 17541365852777338605
2748010 2 17977946787239182892
369184 2 18409727356903102946
5084963 1 17987787506465180891
528886 8 18410852183258090690
66348 1 17977383832901123320

>  <PUBCHEM_SHAPE_MULTIPOLES>
226.14
3.73
1.96
0.72
0.94
0.21
-0.01
-0.37
-0.41
-0.37
0.33
-0.23
0.07
0.04

>  <PUBCHEM_SHAPE_SELFOVERLAP>
490.322

>  <PUBCHEM_SHAPE_VOLUME>
121.2

>  <PUBCHEM_COORDINATE_TYPE>
2
5
10

$$$$
