69852218
 OpenBabel01182520543D

 24 24  0  0  0  0  0  0  0  0999 V2000
   -3.9188   -1.3565   -0.0562 O   0  0  0  0  0  0  0  0  0  0  0  0
    2.1378    0.5506    0.1549 N   0  0  0  0  0  0  0  0  0  0  0  0
   -0.0647    1.4510    0.0339 N   0  0  0  0  0  0  0  0  0  0  0  0
   -4.1939    0.9185   -0.1394 N   0  0  0  0  0  0  0  0  0  0  0  0
    0.7346    0.3625    0.0960 C   0  0  0  0  0  0  0  0  0  0  0  0
   -1.9609   -0.0481   -0.0156 C   0  0  0  0  0  0  0  0  0  0  0  0
    3.0585   -0.5371    0.2225 C   0  0  0  0  0  0  0  0  0  0  0  0
    0.2686   -0.9424    0.1064 C   0  0  0  0  0  0  0  0  0  0  0  0
   -1.1062   -1.1430    0.0492 C   0  0  0  0  0  0  0  0  0  0  0  0
   -1.3951    1.2167   -0.0204 C   0  0  0  0  0  0  0  0  0  0  0  0
   -3.4012   -0.2248   -0.0762 C   0  0  0  0  0  0  0  0  0  0  0  0
    4.4487    0.0098    0.2772 C   0  0  0  0  0  0  0  0  0  0  0  0
    5.3927   -0.2572   -0.6324 C   0  0  0  0  0  0  0  0  0  0  0  0
    2.4595    1.5122    0.1446 H   0  0  0  0  0  0  0  0  0  0  0  0
    2.8988   -1.1314    1.1301 H   0  0  0  0  0  0  0  0  0  0  0  0
    2.9509   -1.1968   -0.6473 H   0  0  0  0  0  0  0  0  0  0  0  0
    0.9055   -1.8174    0.1577 H   0  0  0  0  0  0  0  0  0  0  0  0
   -1.4899   -2.1596    0.0564 H   0  0  0  0  0  0  0  0  0  0  0  0
   -1.9651    2.1359   -0.0677 H   0  0  0  0  0  0  0  0  0  0  0  0
    4.7066    0.6480    1.1191 H   0  0  0  0  0  0  0  0  0  0  0  0
   -3.8527    1.8712   -0.1549 H   0  0  0  0  0  0  0  0  0  0  0  0
   -5.2041    0.8239   -0.1758 H   0  0  0  0  0  0  0  0  0  0  0  0
    6.3870    0.1641   -0.5313 H   0  0  0  0  0  0  0  0  0  0  0  0
    5.1945   -0.8940   -1.4873 H   0  0  0  0  0  0  0  0  0  0  0  0
  1 11  2  0  0  0  0
  2  5  1  0  0  0  0
  2  7  1  0  0  0  0
  2 14  1  0  0  0  0
  3  5  2  0  0  0  0
  3 10  1  0  0  0  0
  4 11  1  0  0  0  0
  4 21  1  0  0  0  0
  4 22  1  0  0  0  0
  5  8  1  0  0  0  0
  6  9  1  0  0  0  0
  6 10  2  0  0  0  0
  6 11  1  0  0  0  0
  7 12  1  0  0  0  0
  7 15  1  0  0  0  0
  7 16  1  0  0  0  0
  8  9  2  0  0  0  0
  8 17  1  0  0  0  0
  9 18  1  0  0  0  0
 10 19  1  0  0  0  0
 12 13  2  0  0  0  0
 12 20  1  0  0  0  0
 13 23  1  0  0  0  0
 13 24  1  0  0  0  0
M  END
>  <PUBCHEM_COMPOUND_CID>
69852218

>  <PUBCHEM_CONFORMER_RMSD>
0.6

>  <PUBCHEM_CONFORMER_DIVERSEORDER>
1
18
24
8
16
10
19
4
5
23
22
17
2
14
9
20
13
3
6
7
11
21
15
12

>  <PUBCHEM_MMFF94_PARTIAL_CHARGES>
22
1 -0.57
10 0.16
11 0.54
12 -0.29
13 -0.3
14 0.4
17 0.15
18 0.15
19 0.15
2 -0.87
20 0.15
21 0.37
22 0.37
23 0.15
24 0.15
3 -0.62
4 -0.8
5 0.41
6 0.09
7 0.51
8 -0.15
9 -0.15

>  <PUBCHEM_EFFECTIVE_ROTOR_COUNT>
4

>  <PUBCHEM_PHARMACOPHORE_FEATURES>
6
1 1 acceptor
1 13 hydrophobe
1 2 donor
1 4 donor
3 2 3 5 cation
6 3 5 6 8 9 10 rings

>  <PUBCHEM_HEAVY_ATOM_COUNT>
13

>  <PUBCHEM_ATOM_DEF_STEREO_COUNT>
0

>  <PUBCHEM_ATOM_UDEF_STEREO_COUNT>
0

>  <PUBCHEM_BOND_DEF_STEREO_COUNT>
0

>  <PUBCHEM_BOND_UDEF_STEREO_COUNT>
0

>  <PUBCHEM_ISOTOPIC_ATOM_COUNT>
0

>  <PUBCHEM_COMPONENT_COUNT>
1

>  <PUBCHEM_CACTVS_TAUTO_COUNT>
7

>  <PUBCHEM_CONFORMER_ID>
0429DC3A00000001

>  <PUBCHEM_MMFF94_ENERGY>
39.3242

>  <PUBCHEM_FEATURE_SELFOVERLAP>
30.446

>  <PUBCHEM_SHAPE_FINGERPRINT>
11062470 55 12685091479822420050
11401426 45 18411695482933145189
12032990 46 18411420652239270947
12119455 92 16988841670278343356
13214271 11 18342736312920792135
13690532 89 18408040715020064898
13760787 19 17748820804767840931
14123238 8 17240483619815555486
14911166 2 18409161121584562861
14993402 34 17748827427659944334
15048467 5 16660641834796704093
15536298 74 18341048635639756576
17804303 29 18342457066573262944
17834072 33 18339364171019807556
187816 3 17748545948034864587
200 152 17203324503062329222
21267235 1 18410300250154616555
22485316 2 18411696578181577602
23402539 116 18343013393686964662
23559900 14 18341891914198339688
366044 4 18410009931397125370
42788 4 18409730664550134198
68521 5 18411700946016124776
7364860 26 18196934581583180728

>  <PUBCHEM_SHAPE_MULTIPOLES>
246.72
9.35
1.25
0.64
7.56
0.05
-0.02
-0.91
-1.12
-0.86
0.01
0.25
-0.02
0.06

>  <PUBCHEM_SHAPE_SELFOVERLAP>
506.127

>  <PUBCHEM_SHAPE_VOLUME>
140.9

>  <PUBCHEM_COORDINATE_TYPE>
2
5
10

$$$$
