69968915
 OpenBabel01182520543D

 20 20  0  0  0  0  0  0  0  0999 V2000
   -2.2360   -0.3918    1.0661 F   0  0  0  0  0  0  0  0  0  0  0  0
   -2.6383    1.4655    0.0096 F   0  0  0  0  0  0  0  0  0  0  0  0
   -2.2345   -0.3587   -1.1025 F   0  0  0  0  0  0  0  0  0  0  0  0
    0.0508   -2.3159   -1.1124 O   0  0  0  0  0  0  0  0  0  0  0  0
    2.3192    1.3817    0.0106 N   0  0  0  0  0  0  0  0  0  0  0  0
    2.9112   -0.9122   -0.0242 N   0  0  0  0  0  0  0  0  0  0  0  0
    0.0310   -2.3503    1.1803 N   0  0  0  0  0  0  0  0  0  0  0  0
   -0.3899    0.6927   -0.0005 C   0  0  0  0  0  0  0  0  0  0  0  0
    0.5831   -0.3006   -0.0157 C   0  0  0  0  0  0  0  0  0  0  0  0
    1.9117    0.0928   -0.0094 C   0  0  0  0  0  0  0  0  0  0  0  0
   -0.0098    2.0301    0.0203 C   0  0  0  0  0  0  0  0  0  0  0  0
   -1.8450    0.3561   -0.0068 C   0  0  0  0  0  0  0  0  0  0  0  0
    0.2014   -1.7087   -0.0405 C   0  0  0  0  0  0  0  0  0  0  0  0
    1.3452    2.3193    0.0250 C   0  0  0  0  0  0  0  0  0  0  0  0
   -0.7332    2.8378    0.0326 H   0  0  0  0  0  0  0  0  0  0  0  0
    1.6940    3.3466    0.0409 H   0  0  0  0  0  0  0  0  0  0  0  0
    2.7139   -1.7990    0.4227 H   0  0  0  0  0  0  0  0  0  0  0  0
    3.8722   -0.5921   -0.0247 H   0  0  0  0  0  0  0  0  0  0  0  0
    0.1576   -1.8687    2.0649 H   0  0  0  0  0  0  0  0  0  0  0  0
   -0.2280   -3.3302    1.2233 H   0  0  0  0  0  0  0  0  0  0  0  0
  1 12  1  0  0  0  0
  2 12  1  0  0  0  0
  3 12  1  0  0  0  0
  4 13  2  0  0  0  0
  5 10  2  0  0  0  0
  5 14  1  0  0  0  0
  6 10  1  0  0  0  0
  6 17  1  0  0  0  0
  6 18  1  0  0  0  0
  7 13  1  0  0  0  0
  7 19  1  0  0  0  0
  7 20  1  0  0  0  0
  8  9  2  0  0  0  0
  8 11  1  0  0  0  0
  8 12  1  0  0  0  0
  9 10  1  0  0  0  0
  9 13  1  0  0  0  0
 11 14  2  0  0  0  0
 11 15  1  0  0  0  0
 14 16  1  0  0  0  0
M  END
>  <PUBCHEM_COMPOUND_CID>
69968915

>  <PUBCHEM_CONFORMER_RMSD>
0.6

>  <PUBCHEM_CONFORMER_DIVERSEORDER>
1
2

>  <PUBCHEM_MMFF94_PARTIAL_CHARGES>
20
1 -0.34
10 0.41
11 -0.15
12 1.16
13 0.54
14 0.16
15 0.15
16 0.15
17 0.4
18 0.4
19 0.37
2 -0.34
20 0.37
3 -0.34
4 -0.57
5 -0.62
6 -0.9
7 -0.8
8 -0.14
9 0.09

>  <PUBCHEM_EFFECTIVE_ROTOR_COUNT>
2

>  <PUBCHEM_PHARMACOPHORE_FEATURES>
5
1 4 acceptor
1 6 donor
1 7 donor
3 5 6 10 cation
6 5 8 9 10 11 14 rings

>  <PUBCHEM_HEAVY_ATOM_COUNT>
14

>  <PUBCHEM_ATOM_DEF_STEREO_COUNT>
0

>  <PUBCHEM_ATOM_UDEF_STEREO_COUNT>
0

>  <PUBCHEM_BOND_DEF_STEREO_COUNT>
0

>  <PUBCHEM_BOND_UDEF_STEREO_COUNT>
0

>  <PUBCHEM_ISOTOPIC_ATOM_COUNT>
0

>  <PUBCHEM_COMPONENT_COUNT>
1

>  <PUBCHEM_CACTVS_TAUTO_COUNT>
7

>  <PUBCHEM_CONFORMER_ID>
042BA41300000001

>  <PUBCHEM_MMFF94_ENERGY>
43.3259

>  <PUBCHEM_FEATURE_SELFOVERLAP>
25.372

>  <PUBCHEM_SHAPE_FINGERPRINT>
12423570 1 17988366953335199718
12524768 44 18340772658109953780
13380535 21 17975995455000974044
13380535 76 18122895693134522112
161256 15 17693386542172402724
16945 1 18122625217247387580
193761 8 18050567649211131636
20511035 2 18263092152727604836
20645476 183 17749973131914346022
21040471 1 18267021837455854124
2334 1 18411138060545137708
23419403 2 15231977193388686820
23552423 10 17541674815470292572
23559900 14 18054808423523382396
241688 4 17114383637265287536
2748010 2 18410011035340909476
5084963 1 18131344241291773817
5255222 1 18051416471834723697
528886 8 18339919316437533120
63268167 104 18342454867560732232

>  <PUBCHEM_SHAPE_MULTIPOLES>
245.48
3.15
2.63
0.85
0.07
0.44
0.01
-0.75
-0.02
-0.38
0.06
0.32
0.39
0.03

>  <PUBCHEM_SHAPE_SELFOVERLAP>
525.024

>  <PUBCHEM_SHAPE_VOLUME>
136.7

>  <PUBCHEM_COORDINATE_TYPE>
2
5
10

$$$$
