70449287
 OpenBabel01182520543D

 21 23  0  0  0  0  0  0  0  0999 V2000
    0.0039    2.5602    0.0004 O   0  0  0  0  0  0  0  0  0  0  0  0
   -1.2051    0.5500    0.0004 N   0  0  0  0  0  0  0  0  0  0  0  0
   -0.0412   -1.5282    0.0007 N   0  0  0  0  0  0  0  0  0  0  0  0
   -2.3151   -1.5998    0.0000 N   0  0  0  0  0  0  0  0  0  0  0  0
    2.2840   -1.5901    0.0002 N   0  0  0  0  0  0  0  0  0  0  0  0
    1.2178    0.5654    0.0005 C   0  0  0  0  0  0  0  0  0  0  0  0
   -0.0417    1.3332    0.0006 C   0  0  0  0  0  0  0  0  0  0  0  0
   -1.1513   -0.8569    0.0004 C   0  0  0  0  0  0  0  0  0  0  0  0
    1.1686   -0.8224    0.0005 C   0  0  0  0  0  0  0  0  0  0  0  0
   -2.4415    1.1769   -0.0002 C   0  0  0  0  0  0  0  0  0  0  0  0
    2.4595    1.1993   -0.0003 C   0  0  0  0  0  0  0  0  0  0  0  0
   -3.5887    0.4965   -0.0008 C   0  0  0  0  0  0  0  0  0  0  0  0
    3.6150    0.4282   -0.0010 C   0  0  0  0  0  0  0  0  0  0  0  0
   -3.4391   -0.9636   -0.0007 C   0  0  0  0  0  0  0  0  0  0  0  0
    3.4748   -0.9488   -0.0006 C   0  0  0  0  0  0  0  0  0  0  0  0
   -2.4504    2.2613   -0.0002 H   0  0  0  0  0  0  0  0  0  0  0  0
    2.5440    2.2820   -0.0006 H   0  0  0  0  0  0  0  0  0  0  0  0
   -4.5671    0.9540   -0.0013 H   0  0  0  0  0  0  0  0  0  0  0  0
    4.5953    0.8909   -0.0016 H   0  0  0  0  0  0  0  0  0  0  0  0
   -4.3805   -1.5359   -0.0012 H   0  0  0  0  0  0  0  0  0  0  0  0
    4.3461   -1.5955   -0.0010 H   0  0  0  0  0  0  0  0  0  0  0  0
  1  7  2  0  0  0  0
  2  7  1  0  0  0  0
  2  8  1  0  0  0  0
  2 10  1  0  0  0  0
  3  8  2  0  0  0  0
  3  9  1  0  0  0  0
  4  8  1  0  0  0  0
  4 14  2  0  0  0  0
  5  9  1  0  0  0  0
  5 15  2  0  0  0  0
  6  7  1  0  0  0  0
  6  9  2  0  0  0  0
  6 11  1  0  0  0  0
 10 12  2  0  0  0  0
 10 16  1  0  0  0  0
 11 13  2  0  0  0  0
 11 17  1  0  0  0  0
 12 14  1  0  0  0  0
 12 18  1  0  0  0  0
 13 15  1  0  0  0  0
 13 19  1  0  0  0  0
 14 20  1  0  0  0  0
 15 21  1  0  0  0  0
M  END
>  <PUBCHEM_COMPOUND_CID>
70449287

>  <PUBCHEM_CONFORMER_RMSD>
0.4

>  <PUBCHEM_CONFORMER_DIVERSEORDER>
1

>  <PUBCHEM_MMFF94_PARTIAL_CHARGES>
21
1 -0.57
10 -0.04
11 -0.15
12 -0.14
13 -0.15
14 0.38
15 0.16
16 0.15
17 0.15
18 0.15
19 0.15
2 -0.23
20 0.06
21 0.15
3 -0.63
4 -0.66
5 -0.62
6 0.09
7 0.54
8 0.72
9 0.49

>  <PUBCHEM_EFFECTIVE_ROTOR_COUNT>
0

>  <PUBCHEM_PHARMACOPHORE_FEATURES>
6
1 1 acceptor
1 4 acceptor
1 5 acceptor
6 2 3 6 7 8 9 rings
6 2 4 8 10 12 14 rings
6 5 6 9 11 13 15 rings

>  <PUBCHEM_HEAVY_ATOM_COUNT>
15

>  <PUBCHEM_ATOM_DEF_STEREO_COUNT>
0

>  <PUBCHEM_ATOM_UDEF_STEREO_COUNT>
0

>  <PUBCHEM_BOND_DEF_STEREO_COUNT>
0

>  <PUBCHEM_BOND_UDEF_STEREO_COUNT>
0

>  <PUBCHEM_ISOTOPIC_ATOM_COUNT>
0

>  <PUBCHEM_COMPONENT_COUNT>
1

>  <PUBCHEM_CACTVS_TAUTO_COUNT>
1

>  <PUBCHEM_CONFORMER_ID>
0432F88700000001

>  <PUBCHEM_MMFF94_ENERGY>
42.5284

>  <PUBCHEM_FEATURE_SELFOVERLAP>
30.523

>  <PUBCHEM_SHAPE_FINGERPRINT>
10411042 1 15600329313418081032
10608611 8 18410851070682485576
10967382 1 18410575058935616070
11132069 177 18411694383273818008
11471102 20 18410569587115496222
11806522 49 18266455584857114215
12032990 46 18410862061508927878
12382932 28 18412825772096143416
13140716 1 18410573946507327922
13221675 6 18410292510190681674
13380535 76 18410855460133891286
14144814 61 18411138043290921955
14325111 11 18410855468723436096
15196674 1 18410573989446437926
15442244 35 18194401087395615690
15536298 74 18343302574288619666
16945 1 18194682553550042662
17844478 74 17967537852509096685
18186145 218 17822007597052328726
193761 8 17690280408838852175
200 152 18059846299410868951
20201158 50 18410011030919088179
20510252 161 18200593592443681104
21267235 1 18410583885056771906
21501502 16 18410575101848235854
2334 1 18410574019516503234
23402539 116 18271514343029419774
23402655 69 18269260306387222989
23463225 33 18409167705658644692
23559900 14 18341045217182976794
2748010 2 18411417314875504758
3312278 4 18410577283696929584
335352 9 18050568439131576221
34934 24 18410564085257121610
5104073 3 18410573985162034122
528886 8 18411694383247450738
537710 114 18409736174476567708
53812653 166 18343016739624997072
63268167 104 18411422821229365177
69090 78 18343295968613347703
7364860 26 18125439958345652736
8809292 202 18261116282998453403
9709674 26 18411423929262894750

>  <PUBCHEM_SHAPE_MULTIPOLES>
282.9
6.05
1.98
0.59
0.14
0.41
0
-0.84
0
0.04
0
-0.01
0.01
0

>  <PUBCHEM_SHAPE_SELFOVERLAP>
635.901

>  <PUBCHEM_SHAPE_VOLUME>
145.8

>  <PUBCHEM_COORDINATE_TYPE>
2
5
10

$$$$
