70467785
 OpenBabel01182520543D

 27 27  0  0  0  0  0  0  0  0999 V2000
    0.0521   -2.1285   -0.2448 O   0  0  0  0  0  0  0  0  0  0  0  0
   -0.9284   -0.0202    0.0218 N   0  0  0  0  0  0  0  0  0  0  0  0
   -2.6803   -1.6557   -0.1914 N   0  0  0  0  0  0  0  0  0  0  0  0
    2.8906    1.6337   -0.4049 N   0  0  0  0  0  0  0  0  0  0  0  0
   -3.1944    0.6611    0.1083 C   0  0  0  0  0  0  0  0  0  0  0  0
   -2.2859   -0.3479   -0.0193 C   0  0  0  0  0  0  0  0  0  0  0  0
    1.4841   -0.2978   -0.0359 C   0  0  0  0  0  0  0  0  0  0  0  0
    0.1329   -0.9132   -0.0911 C   0  0  0  0  0  0  0  0  0  0  0  0
   -2.8150    2.1139    0.2991 C   0  0  0  0  0  0  0  0  0  0  0  0
   -4.6973    0.4794    0.0762 C   0  0  0  0  0  0  0  0  0  0  0  0
    2.5826   -1.0207    0.4157 C   0  0  0  0  0  0  0  0  0  0  0  0
    1.6892    1.0143   -0.4313 C   0  0  0  0  0  0  0  0  0  0  0  0
    3.8349   -0.4179    0.4576 C   0  0  0  0  0  0  0  0  0  0  0  0
    3.9349    0.8995    0.0400 C   0  0  0  0  0  0  0  0  0  0  0  0
   -0.7104    0.9532    0.2017 H   0  0  0  0  0  0  0  0  0  0  0  0
   -2.0118    2.4208   -0.3782 H   0  0  0  0  0  0  0  0  0  0  0  0
   -2.5108    2.2938    1.3351 H   0  0  0  0  0  0  0  0  0  0  0  0
   -3.6598    2.7770    0.0809 H   0  0  0  0  0  0  0  0  0  0  0  0
   -5.1416    0.9001    0.9852 H   0  0  0  0  0  0  0  0  0  0  0  0
   -5.0261   -0.5593    0.0174 H   0  0  0  0  0  0  0  0  0  0  0  0
   -5.1182    1.0040   -0.7884 H   0  0  0  0  0  0  0  0  0  0  0  0
    2.4809   -2.0518    0.7428 H   0  0  0  0  0  0  0  0  0  0  0  0
    0.8974    1.6409   -0.8280 H   0  0  0  0  0  0  0  0  0  0  0  0
   -3.6542   -1.9175   -0.2393 H   0  0  0  0  0  0  0  0  0  0  0  0
   -1.9742   -2.3739   -0.2869 H   0  0  0  0  0  0  0  0  0  0  0  0
    4.7051   -0.9616    0.8070 H   0  0  0  0  0  0  0  0  0  0  0  0
    4.8894    1.4153    0.0535 H   0  0  0  0  0  0  0  0  0  0  0  0
  1  8  2  0  0  0  0
  2  6  1  0  0  0  0
  2  8  1  0  0  0  0
  2 15  1  0  0  0  0
  3  6  1  0  0  0  0
  3 24  1  0  0  0  0
  3 25  1  0  0  0  0
  4 12  1  0  0  0  0
  4 14  2  0  0  0  0
  5  6  2  0  0  0  0
  5  9  1  0  0  0  0
  5 10  1  0  0  0  0
  7  8  1  0  0  0  0
  7 11  1  0  0  0  0
  7 12  2  0  0  0  0
  9 16  1  0  0  0  0
  9 17  1  0  0  0  0
  9 18  1  0  0  0  0
 10 19  1  0  0  0  0
 10 20  1  0  0  0  0
 10 21  1  0  0  0  0
 11 13  2  0  0  0  0
 11 22  1  0  0  0  0
 12 23  1  0  0  0  0
 13 14  1  0  0  0  0
 13 26  1  0  0  0  0
 14 27  1  0  0  0  0
M  END
>  <PUBCHEM_COMPOUND_CID>
70467785

>  <PUBCHEM_CONFORMER_RMSD>
0.6

>  <PUBCHEM_CONFORMER_DIVERSEORDER>
1
8
6
7
5
3
10
2
4
9

>  <PUBCHEM_MMFF94_PARTIAL_CHARGES>
21
1 -0.57
10 0.14
11 -0.15
12 0.16
13 -0.15
14 0.16
15 0.37
2 -0.54
22 0.15
23 0.15
24 0.4
25 0.4
26 0.15
27 0.15
3 -0.9
4 -0.62
5 -0.28
6 0.21
7 0.09
8 0.54
9 0.14

>  <PUBCHEM_EFFECTIVE_ROTOR_COUNT>
3

>  <PUBCHEM_PHARMACOPHORE_FEATURES>
7
1 1 acceptor
1 2 donor
1 3 cation
1 3 donor
1 4 acceptor
3 5 9 10 hydrophobe
6 4 7 11 12 13 14 rings

>  <PUBCHEM_HEAVY_ATOM_COUNT>
14

>  <PUBCHEM_ATOM_DEF_STEREO_COUNT>
0

>  <PUBCHEM_ATOM_UDEF_STEREO_COUNT>
0

>  <PUBCHEM_BOND_DEF_STEREO_COUNT>
0

>  <PUBCHEM_BOND_UDEF_STEREO_COUNT>
0

>  <PUBCHEM_ISOTOPIC_ATOM_COUNT>
0

>  <PUBCHEM_COMPONENT_COUNT>
1

>  <PUBCHEM_CACTVS_TAUTO_COUNT>
5

>  <PUBCHEM_CONFORMER_ID>
043340C900000001

>  <PUBCHEM_MMFF94_ENERGY>
43.3417

>  <PUBCHEM_FEATURE_SELFOVERLAP>
35.551

>  <PUBCHEM_SHAPE_FINGERPRINT>
10465860 228 18197786504945332762
10608611 8 18411418405792098449
11132069 177 18409726261755222017
12162725 195 18409730647022241825
12251169 10 18333449824458428715
12346645 44 18410573968140503995
13380535 76 18411419484298583039
13922767 16 18411415094683452224
14144814 61 18408602582562541426
14252887 29 12179847160891751320
14325111 11 18410292536081811262
14415576 193 18340208500901457206
14897335 6 18412543189397782343
15442244 35 18265330608346952842
15775835 57 18410858780159143025
17802600 8 18410568470688249897
18186145 218 18059870445215872794
18522853 276 18411698777215597129
19107657 47 17895187779688096809
20233049 118 18131063827667981400
20279233 1 15698000747019141670
20645477 70 16486702363874057270
20711983 171 18342176699824663390
21524375 3 18412825776586425751
21652331 79 18408886239393688073
22485316 2 9223226338768883939
23402539 116 18272923955532795101
23402655 69 18413107281706892580
23463225 33 18335138670113435148
23557571 272 17917157216069992143
3545911 37 18410857659167254605
474 4 17677054667274163324
4921388 177 15267047182309620477
5104073 3 18335980960603025522
6333272 397 18409451375453444403
6430166 295 18411134714881184488
7364860 26 18199189477419349118

>  <PUBCHEM_SHAPE_MULTIPOLES>
267.3
8.28
1.86
0.66
2.37
0.04
-0.02
2.44
-0.71
0.35
0.09
-0.11
0.03
-0.5

>  <PUBCHEM_SHAPE_SELFOVERLAP>
548.42

>  <PUBCHEM_SHAPE_VOLUME>
152.3

>  <PUBCHEM_COORDINATE_TYPE>
2
5
10

$$$$
