70558091
 OpenBabel01182520543D

 17 18  0  0  0  0  0  0  0  0999 V2000
   -1.2915   -2.0615    0.9247 O   0  0  0  0  0  0  0  0  0  0  0  0
    1.6824    1.3649    0.0966 N   0  0  0  0  0  0  0  0  0  0  0  0
   -0.5520    1.7149    0.5868 N   0  0  0  0  0  0  0  0  0  0  0  0
   -2.0168   -0.6583   -0.7525 N   0  0  0  0  0  0  0  0  0  0  0  0
    0.2494   -0.5556    0.0493 C   0  0  0  0  0  0  0  0  0  0  0  0
    0.4485    0.8131    0.1966 C   0  0  0  0  0  0  0  0  0  0  0  0
    1.3379   -1.3904   -0.2000 C   0  0  0  0  0  0  0  0  0  0  0  0
   -1.0961   -1.1388    0.1420 C   0  0  0  0  0  0  0  0  0  0  0  0
    2.6039   -0.8341   -0.3126 C   0  0  0  0  0  0  0  0  0  0  0  0
    2.7213    0.5364   -0.1622 C   0  0  0  0  0  0  0  0  0  0  0  0
   -1.7744    1.6123    0.1870 C   0  0  0  0  0  0  0  0  0  0  0  0
   -2.3125    0.5972   -0.7558 C   0  0  0  0  0  0  0  0  0  0  0  0
    1.2083   -2.4622   -0.3192 H   0  0  0  0  0  0  0  0  0  0  0  0
    3.4711   -1.4521   -0.5139 H   0  0  0  0  0  0  0  0  0  0  0  0
    3.6881    1.0227   -0.2415 H   0  0  0  0  0  0  0  0  0  0  0  0
   -2.5212    2.3454    0.5308 H   0  0  0  0  0  0  0  0  0  0  0  0
   -3.0439    0.9903   -1.4789 H   0  0  0  0  0  0  0  0  0  0  0  0
  1  8  2  0  0  0  0
  2  6  1  0  0  0  0
  2 10  2  0  0  0  0
  3  6  1  0  0  0  0
  3 11  2  0  0  0  0
  4  8  1  0  0  0  0
  4 12  2  0  0  0  0
  5  6  2  0  0  0  0
  5  7  1  0  0  0  0
  5  8  1  0  0  0  0
  7  9  2  0  0  0  0
  7 13  1  0  0  0  0
  9 10  1  0  0  0  0
  9 14  1  0  0  0  0
 10 15  1  0  0  0  0
 11 12  1  0  0  0  0
 11 16  1  0  0  0  0
 12 17  1  0  0  0  0
M  END
>  <PUBCHEM_COMPOUND_CID>
70558091

>  <PUBCHEM_CONFORMER_RMSD>
0.4

>  <PUBCHEM_CONFORMER_DIVERSEORDER>
1
2

>  <PUBCHEM_MMFF94_PARTIAL_CHARGES>
17
1 -0.57
10 0.16
11 0.39
12 0.39
13 0.15
14 0.15
15 0.15
16 0.06
17 0.06
2 -0.62
3 -0.63
4 -0.66
5 0.09
6 0.49
7 -0.15
8 0.69
9 -0.15

>  <PUBCHEM_EFFECTIVE_ROTOR_COUNT>
0

>  <PUBCHEM_PHARMACOPHORE_FEATURES>
7
1 1 acceptor
1 2 acceptor
1 3 acceptor
1 4 acceptor
1 4 donor
6 2 5 6 7 9 10 rings
7 3 4 5 6 8 11 12 rings

>  <PUBCHEM_HEAVY_ATOM_COUNT>
12

>  <PUBCHEM_ATOM_DEF_STEREO_COUNT>
0

>  <PUBCHEM_ATOM_UDEF_STEREO_COUNT>
0

>  <PUBCHEM_BOND_DEF_STEREO_COUNT>
0

>  <PUBCHEM_BOND_UDEF_STEREO_COUNT>
0

>  <PUBCHEM_ISOTOPIC_ATOM_COUNT>
0

>  <PUBCHEM_COMPONENT_COUNT>
1

>  <PUBCHEM_CACTVS_TAUTO_COUNT>
1

>  <PUBCHEM_CONFORMER_ID>
0434A18B00000001

>  <PUBCHEM_MMFF94_ENERGY>
46.8314

>  <PUBCHEM_FEATURE_SELFOVERLAP>
35.636

>  <PUBCHEM_SHAPE_FINGERPRINT>
11206711 2 18411990190804451948
12138202 97 18114454647430445030
12897270 3 18342173388457593172
13024252 1 12829494752745252621
13380535 76 18411133593915929678
15775835 57 18118689815917914421
16945 1 18412261696950902676
17844478 74 18114476625242055961
18185500 45 17474381379529837987
19973954 147 18409733997175763132
20201158 50 18412538834000257462
21040471 1 18266181634515211608
22802520 49 18128838360082561830
23552423 10 18408323285097313630
23559900 14 18269843030697200534
241688 4 17188976718128414666
2748010 2 17979632656297347124
5084963 1 18126839408998350313
528886 8 18340763754247136256
63268167 104 18122059801866479460
66348 1 18411981373083488644

>  <PUBCHEM_SHAPE_MULTIPOLES>
226.14
3.56
1.96
0.78
1.05
0.15
0.01
-0.32
0.68
-0.43
-0.4
-0.24
0.1
0.12

>  <PUBCHEM_SHAPE_SELFOVERLAP>
494.999

>  <PUBCHEM_SHAPE_VOLUME>
120.6

>  <PUBCHEM_COORDINATE_TYPE>
2
5
10

$$$$
