70582974
 OpenBabel01182520543D

 24 26  0  0  0  0  0  0  0  0999 V2000
   -0.2049   -2.3516    0.0106 O   0  0  0  0  0  0  0  0  0  0  0  0
    3.2901   -0.1014   -1.2403 N   0  0  0  0  0  0  0  0  0  0  0  0
   -2.8858    1.4242   -0.0053 N   0  0  0  0  0  0  0  0  0  0  0  0
   -3.2709   -0.9658   -0.0051 N   0  0  0  0  0  0  0  0  0  0  0  0
   -2.5199   -1.9928   -0.0006 N   0  0  0  0  0  0  0  0  0  0  0  0
   -0.1208    0.7566    0.0087 C   0  0  0  0  0  0  0  0  0  0  0  0
    1.3122    0.4054    0.0161 C   0  0  0  0  0  0  0  0  0  0  0  0
   -1.1201   -0.1839    0.0044 C   0  0  0  0  0  0  0  0  0  0  0  0
    4.1473   -0.3131   -0.0858 C   0  0  0  0  0  0  0  0  0  0  0  0
    1.9617    0.2337   -1.1512 C   0  0  0  0  0  0  0  0  0  0  0  0
    2.0842    0.2152    1.2395 C   0  0  0  0  0  0  0  0  0  0  0  0
   -0.5325    2.0860    0.0061 C   0  0  0  0  0  0  0  0  0  0  0  0
   -2.4416    0.1592   -0.0022 C   0  0  0  0  0  0  0  0  0  0  0  0
    3.3867   -0.1142    1.2009 C   0  0  0  0  0  0  0  0  0  0  0  0
   -1.1811   -1.6217    0.0054 C   0  0  0  0  0  0  0  0  0  0  0  0
   -1.9045    2.3644   -0.0011 C   0  0  0  0  0  0  0  0  0  0  0  0
    4.9869    0.3885   -0.1249 H   0  0  0  0  0  0  0  0  0  0  0  0
    4.5513   -1.3302   -0.1166 H   0  0  0  0  0  0  0  0  0  0  0  0
    1.4872    0.3449   -2.1196 H   0  0  0  0  0  0  0  0  0  0  0  0
    1.5802    0.3458    2.1917 H   0  0  0  0  0  0  0  0  0  0  0  0
    0.1828    2.9029    0.0095 H   0  0  0  0  0  0  0  0  0  0  0  0
    3.6823   -0.2070   -2.1698 H   0  0  0  0  0  0  0  0  0  0  0  0
    3.9299   -0.2480    2.1318 H   0  0  0  0  0  0  0  0  0  0  0  0
   -2.2559    3.3916   -0.0035 H   0  0  0  0  0  0  0  0  0  0  0  0
  1 15  2  0  0  0  0
  2  9  1  0  0  0  0
  2 10  1  0  0  0  0
  2 22  1  0  0  0  0
  3 13  2  0  0  0  0
  3 16  1  0  0  0  0
  4  5  2  0  0  0  0
  4 13  1  0  0  0  0
  5 15  1  0  0  0  0
  6  7  1  0  0  0  0
  6  8  2  0  0  0  0
  6 12  1  0  0  0  0
  7 10  2  0  0  0  0
  7 11  1  0  0  0  0
  8 13  1  0  0  0  0
  8 15  1  0  0  0  0
  9 14  1  0  0  0  0
  9 17  1  0  0  0  0
  9 18  1  0  0  0  0
 10 19  1  0  0  0  0
 11 14  2  0  0  0  0
 11 20  1  0  0  0  0
 12 16  2  0  0  0  0
 12 21  1  0  0  0  0
 14 23  1  0  0  0  0
 16 24  1  0  0  0  0
M  END
>  <PUBCHEM_COMPOUND_CID>
70582974

>  <PUBCHEM_CONFORMER_RMSD>
0.6

>  <PUBCHEM_CONFORMER_DIVERSEORDER>
1
2

>  <PUBCHEM_MMFF94_PARTIAL_CHARGES>
22
1 -0.57
10 -0.05
11 -0.15
12 -0.15
13 0.49
14 -0.29
15 0.69
16 0.16
19 0.15
2 -0.87
20 0.15
21 0.15
22 0.4
23 0.15
24 0.15
3 -0.62
4 -0.18
5 -0.21
6 0.03
7 -0.03
8 0.09
9 0.51

>  <PUBCHEM_EFFECTIVE_ROTOR_COUNT>
1.4

>  <PUBCHEM_PHARMACOPHORE_FEATURES>
8
1 1 acceptor
1 2 cation
1 2 donor
1 5 donor
3 3 4 13 cation
5 4 5 8 13 15 rings
6 2 7 9 10 11 14 rings
6 3 6 8 12 13 16 rings

>  <PUBCHEM_HEAVY_ATOM_COUNT>
16

>  <PUBCHEM_ATOM_DEF_STEREO_COUNT>
0

>  <PUBCHEM_ATOM_UDEF_STEREO_COUNT>
0

>  <PUBCHEM_BOND_DEF_STEREO_COUNT>
0

>  <PUBCHEM_BOND_UDEF_STEREO_COUNT>
0

>  <PUBCHEM_ISOTOPIC_ATOM_COUNT>
0

>  <PUBCHEM_COMPONENT_COUNT>
1

>  <PUBCHEM_CACTVS_TAUTO_COUNT>
5

>  <PUBCHEM_CONFORMER_ID>
043502BE00000001

>  <PUBCHEM_MMFF94_ENERGY>
50.9666

>  <PUBCHEM_FEATURE_SELFOVERLAP>
40.714

>  <PUBCHEM_SHAPE_FINGERPRINT>
12236239 1 17676488332949458776
12500047 106 18267578022988563660
12553582 1 18193843875387003159
13140716 1 18267026235950414281
13538477 17 18187081745742282852
13581323 91 18410006641778808474
13862211 1 18410569626598896431
14614273 12 18189610549725087517
15219456 202 17775280578065782848
15375462 175 18411147930358449666
15669948 3 18408041823042473612
15848700 24 18199743807821358647
16752209 62 18335409167317248015
16945 1 18410573959735335097
17804303 29 18342176682534011336
19049666 15 17773885190303862860
19422 9 17894351068698466306
20279233 1 17846495916021111516
20510252 161 18343584044538165104
20645476 183 17748831829806516607
20871998 184 18272086123451393351
21197605 99 12280628942830871482
22112679 90 18041001730551336260
23184049 29 18122057869194545275
232386 152 18335698394657083076
2334 1 18050285074807150245
23402539 116 18343007900861656037
23419403 2 14545029867769128815
23463225 33 18188204295606328762
23526113 38 17488183686764579622
23557571 272 18271531974603788792
23559900 14 18272090436468860174
23598291 2 17749118768366522852
2748010 2 18194392523483989445
350125 39 17546454379695182129
43471831 8 18262795164313749243
465052 167 17970366999497547731
474 4 17024604510765899068
69090 78 17561074826380239807
7364860 26 17765999784709214969
77492 1 17676207957442203856
81228 2 18411705395733729225
90525 40 18187930534316833734
9709674 26 18342745087602723238

>  <PUBCHEM_SHAPE_MULTIPOLES>
303.48
5.91
2.13
0.96
3.72
0.07
-0.01
0.58
-0.07
-2.19
-0.01
0.98
-0.04
0

>  <PUBCHEM_SHAPE_SELFOVERLAP>
679.279

>  <PUBCHEM_SHAPE_VOLUME>
159.9

>  <PUBCHEM_COORDINATE_TYPE>
2
5
10

$$$$
