70906158
 OpenBabel01182520543D

 35 35  0  0  0  0  0  0  0  0999 V2000
    0.0676    1.7859   -0.2801 O   0  0  0  0  0  0  0  0  0  0  0  0
    0.5772   -0.2415    0.7252 N   0  0  0  0  0  0  0  0  0  0  0  0
   -4.0284    0.9433   -0.0681 N   0  0  0  0  0  0  0  0  0  0  0  0
   -5.7152   -0.7331   -0.2139 N   0  0  0  0  0  0  0  0  0  0  0  0
    4.3214   -0.2235   -0.2172 C   0  0  0  0  0  0  0  0  0  0  0  0
    2.7913   -0.4632   -0.2988 C   0  0  0  0  0  0  0  0  0  0  0  0
    4.6447    1.2776   -0.1378 C   0  0  0  0  0  0  0  0  0  0  0  0
    5.0443   -0.8338   -1.4293 C   0  0  0  0  0  0  0  0  0  0  0  0
    4.8479   -0.9053    1.0608 C   0  0  0  0  0  0  0  0  0  0  0  0
    1.9827    0.0076    0.9091 C   0  0  0  0  0  0  0  0  0  0  0  0
   -0.2765    0.6830    0.1367 C   0  0  0  0  0  0  0  0  0  0  0  0
   -1.7048    0.2852    0.0439 C   0  0  0  0  0  0  0  0  0  0  0  0
   -2.0736   -1.0542   -0.0170 C   0  0  0  0  0  0  0  0  0  0  0  0
   -2.7113    1.2369    0.0153 C   0  0  0  0  0  0  0  0  0  0  0  0
   -3.4186   -1.3958   -0.1035 C   0  0  0  0  0  0  0  0  0  0  0  0
   -4.3486   -0.3689   -0.1255 C   0  0  0  0  0  0  0  0  0  0  0  0
    2.4053    0.0293   -1.2018 H   0  0  0  0  0  0  0  0  0  0  0  0
    2.6020   -1.5355   -0.4476 H   0  0  0  0  0  0  0  0  0  0  0  0
    5.7278    1.4466   -0.1388 H   0  0  0  0  0  0  0  0  0  0  0  0
    4.2247    1.8139   -0.9959 H   0  0  0  0  0  0  0  0  0  0  0  0
    4.2493    1.7378    0.7732 H   0  0  0  0  0  0  0  0  0  0  0  0
    6.1278   -0.6826   -1.3682 H   0  0  0  0  0  0  0  0  0  0  0  0
    4.6949   -0.3776   -2.3621 H   0  0  0  0  0  0  0  0  0  0  0  0
    4.8607   -1.9120   -1.4963 H   0  0  0  0  0  0  0  0  0  0  0  0
    5.9433   -0.8677    1.0979 H   0  0  0  0  0  0  0  0  0  0  0  0
    4.4873   -0.4169    1.9719 H   0  0  0  0  0  0  0  0  0  0  0  0
    4.5550   -1.9606    1.0985 H   0  0  0  0  0  0  0  0  0  0  0  0
    2.1253    1.0772    1.0889 H   0  0  0  0  0  0  0  0  0  0  0  0
    2.2702   -0.5338    1.8147 H   0  0  0  0  0  0  0  0  0  0  0  0
    0.2168   -1.1155    1.0928 H   0  0  0  0  0  0  0  0  0  0  0  0
   -1.3431   -1.8573   -0.0279 H   0  0  0  0  0  0  0  0  0  0  0  0
   -2.4930    2.2993    0.0635 H   0  0  0  0  0  0  0  0  0  0  0  0
   -3.7140   -2.4387   -0.1570 H   0  0  0  0  0  0  0  0  0  0  0  0
   -6.3908    0.0207   -0.2359 H   0  0  0  0  0  0  0  0  0  0  0  0
   -5.9531   -1.6038   -0.6728 H   0  0  0  0  0  0  0  0  0  0  0  0
  1 11  2  0  0  0  0
  2 10  1  0  0  0  0
  2 11  1  0  0  0  0
  2 30  1  0  0  0  0
  3 14  1  0  0  0  0
  3 16  2  0  0  0  0
  4 16  1  0  0  0  0
  4 34  1  0  0  0  0
  4 35  1  0  0  0  0
  5  6  1  0  0  0  0
  5  7  1  0  0  0  0
  5  8  1  0  0  0  0
  5  9  1  0  0  0  0
  6 10  1  0  0  0  0
  6 17  1  0  0  0  0
  6 18  1  0  0  0  0
  7 19  1  0  0  0  0
  7 20  1  0  0  0  0
  7 21  1  0  0  0  0
  8 22  1  0  0  0  0
  8 23  1  0  0  0  0
  8 24  1  0  0  0  0
  9 25  1  0  0  0  0
  9 26  1  0  0  0  0
  9 27  1  0  0  0  0
 10 28  1  0  0  0  0
 10 29  1  0  0  0  0
 11 12  1  0  0  0  0
 12 13  1  0  0  0  0
 12 14  2  0  0  0  0
 13 15  2  0  0  0  0
 13 31  1  0  0  0  0
 14 32  1  0  0  0  0
 15 16  1  0  0  0  0
 15 33  1  0  0  0  0
M  END
>  <PUBCHEM_COMPOUND_CID>
70906158

>  <PUBCHEM_CONFORMER_RMSD>
0.6

>  <PUBCHEM_CONFORMER_DIVERSEORDER>
4
20
22
2
10
16
8
17
11
9
3
13
19
1
7
27
23
6
21
5
25
18
12
28
26
15
14
24

>  <PUBCHEM_MMFF94_PARTIAL_CHARGES>
17
1 -0.57
10 0.3
11 0.54
12 0.09
13 -0.15
14 0.16
15 -0.15
16 0.41
2 -0.73
3 -0.62
30 0.37
31 0.15
32 0.15
33 0.15
34 0.4
35 0.4
4 -0.9

>  <PUBCHEM_EFFECTIVE_ROTOR_COUNT>
5

>  <PUBCHEM_PHARMACOPHORE_FEATURES>
6
1 1 acceptor
1 2 donor
1 4 donor
3 3 4 16 cation
4 5 7 8 9 hydrophobe
6 3 12 13 14 15 16 rings

>  <PUBCHEM_HEAVY_ATOM_COUNT>
16

>  <PUBCHEM_ATOM_DEF_STEREO_COUNT>
0

>  <PUBCHEM_ATOM_UDEF_STEREO_COUNT>
0

>  <PUBCHEM_BOND_DEF_STEREO_COUNT>
0

>  <PUBCHEM_BOND_UDEF_STEREO_COUNT>
0

>  <PUBCHEM_ISOTOPIC_ATOM_COUNT>
0

>  <PUBCHEM_COMPONENT_COUNT>
1

>  <PUBCHEM_CACTVS_TAUTO_COUNT>
7

>  <PUBCHEM_CONFORMER_ID>
0439F12E00000004

>  <PUBCHEM_MMFF94_ENERGY>
45.5701

>  <PUBCHEM_FEATURE_SELFOVERLAP>
30.446

>  <PUBCHEM_SHAPE_FINGERPRINT>
10968037 39 18408886269447442087
11128504 68 17749396974899410318
11287383 113 18342455967499361712
12236239 1 17675924283210096587
13167823 11 18260824869863045722
13288520 33 18342176674650815463
13533116 47 15267350591536566670
14123238 8 18410575097553255566
14251752 14 17604134940408662517
14252887 29 16128379259807738878
14386348 63 17846782901166829382
14455015 7 17060345093613678086
14528608 73 18187651331784069724
14573314 32 17704075057856891001
15048467 5 15791728586307616663
15536298 74 18339078301949155240
17804303 29 18343862234328903369
17834072 33 18411698819943483645
17844677 252 18201445765753329696
17870717 6 18342748394447706471
18186145 218 15864070970910394088
200 152 17676485030008702040
20281475 54 18341331076846523762
20374829 77 18411976970752741635
204376 136 14923950054586394520
20645477 70 17703796882085133078
20871999 31 18260825973653667013
21267235 1 18409174333320826579
2215653 11 17988638580278980949
22485316 2 18412823590537651946
2297311 6 18273222984183515861
23175994 123 17203328918542034633
23402539 116 18260260824829723958
23557571 272 18200322021999106588
23559900 14 18272363217503777776
239999 70 18131073728005513286
3004659 81 18335985294657757366
34797466 226 17988934417616182660
3545911 37 8358263656753741880
42 15 10663822975072521400
4214541 1 18411981330007539921
4463277 17 18407760339908591801
465052 167 16415483778569719196
4990 188 18341896273194428170
5104073 3 18412262847981221848
5374978 207 18409722972469585136
77779 3 18413108364043984184

>  <PUBCHEM_SHAPE_MULTIPOLES>
308.46
12.81
1.4
0.91
1.85
0.26
-0.03
-2.78
-1.68
-0.27
-0.1
1.19
-0.18
0

>  <PUBCHEM_SHAPE_SELFOVERLAP>
622.764

>  <PUBCHEM_SHAPE_VOLUME>
180.5

>  <PUBCHEM_COORDINATE_TYPE>
2
5
10

$$$$
