70906165
 OpenBabel01182520543D

 36 36  0  0  0  0  0  0  0  0999 V2000
    3.8852   -0.2695    0.2008 O   0  0  0  0  0  0  0  0  0  0  0  0
   -1.1297   -2.3255    1.1014 O   0  0  0  0  0  0  0  0  0  0  0  0
   -0.1186   -1.4438   -0.7911 N   0  0  0  0  0  0  0  0  0  0  0  0
   -2.8423    1.7505   -0.5820 N   0  0  0  0  0  0  0  0  0  0  0  0
   -5.0667    2.4821   -0.1414 N   0  0  0  0  0  0  0  0  0  0  0  0
    2.1880   -1.9354   -0.0835 C   0  0  0  0  0  0  0  0  0  0  0  0
    0.9618   -2.3890   -0.8646 C   0  0  0  0  0  0  0  0  0  0  0  0
    2.7390   -0.6010   -0.5716 C   0  0  0  0  0  0  0  0  0  0  0  0
    4.4483    0.9699   -0.2070 C   0  0  0  0  0  0  0  0  0  0  0  0
    5.6659    1.2645    0.6556 C   0  0  0  0  0  0  0  0  0  0  0  0
   -1.0907   -1.4906    0.2015 C   0  0  0  0  0  0  0  0  0  0  0  0
    6.3139    2.5865    0.2855 C   0  0  0  0  0  0  0  0  0  0  0  0
   -2.1556   -0.4577    0.1229 C   0  0  0  0  0  0  0  0  0  0  0  0
   -3.4212   -0.6914    0.6492 C   0  0  0  0  0  0  0  0  0  0  0  0
   -1.9190    0.7685   -0.4771 C   0  0  0  0  0  0  0  0  0  0  0  0
   -4.3977    0.2945    0.5607 C   0  0  0  0  0  0  0  0  0  0  0  0
   -4.0608    1.4873   -0.0589 C   0  0  0  0  0  0  0  0  0  0  0  0
    2.9715   -2.6998   -0.1539 H   0  0  0  0  0  0  0  0  0  0  0  0
    1.9465   -1.8525    0.9839 H   0  0  0  0  0  0  0  0  0  0  0  0
    1.2116   -2.5160   -1.9235 H   0  0  0  0  0  0  0  0  0  0  0  0
    0.6201   -3.3578   -0.4841 H   0  0  0  0  0  0  0  0  0  0  0  0
    3.0178   -0.6755   -1.6293 H   0  0  0  0  0  0  0  0  0  0  0  0
    1.9890    0.1900   -0.4580 H   0  0  0  0  0  0  0  0  0  0  0  0
    3.7042    1.7667   -0.0906 H   0  0  0  0  0  0  0  0  0  0  0  0
    4.7407    0.9112   -1.2621 H   0  0  0  0  0  0  0  0  0  0  0  0
    5.3738    1.2767    1.7125 H   0  0  0  0  0  0  0  0  0  0  0  0
    6.3943    0.4511    0.5538 H   0  0  0  0  0  0  0  0  0  0  0  0
   -0.1760   -0.7572   -1.5357 H   0  0  0  0  0  0  0  0  0  0  0  0
    6.6477    2.5816   -0.7570 H   0  0  0  0  0  0  0  0  0  0  0  0
    5.6138    3.4176    0.4185 H   0  0  0  0  0  0  0  0  0  0  0  0
    7.1858    2.7724    0.9203 H   0  0  0  0  0  0  0  0  0  0  0  0
   -3.6649   -1.6359    1.1277 H   0  0  0  0  0  0  0  0  0  0  0  0
   -0.9532    1.0443   -0.8872 H   0  0  0  0  0  0  0  0  0  0  0  0
   -5.3877    0.1192    0.9690 H   0  0  0  0  0  0  0  0  0  0  0  0
   -4.8179    3.3496   -0.6005 H   0  0  0  0  0  0  0  0  0  0  0  0
   -6.0351    2.1872   -0.1656 H   0  0  0  0  0  0  0  0  0  0  0  0
  1  8  1  0  0  0  0
  1  9  1  0  0  0  0
  2 11  2  0  0  0  0
  3  7  1  0  0  0  0
  3 11  1  0  0  0  0
  3 28  1  0  0  0  0
  4 15  1  0  0  0  0
  4 17  2  0  0  0  0
  5 17  1  0  0  0  0
  5 35  1  0  0  0  0
  5 36  1  0  0  0  0
  6  7  1  0  0  0  0
  6  8  1  0  0  0  0
  6 18  1  0  0  0  0
  6 19  1  0  0  0  0
  7 20  1  0  0  0  0
  7 21  1  0  0  0  0
  8 22  1  0  0  0  0
  8 23  1  0  0  0  0
  9 10  1  0  0  0  0
  9 24  1  0  0  0  0
  9 25  1  0  0  0  0
 10 12  1  0  0  0  0
 10 26  1  0  0  0  0
 10 27  1  0  0  0  0
 11 13  1  0  0  0  0
 12 29  1  0  0  0  0
 12 30  1  0  0  0  0
 12 31  1  0  0  0  0
 13 14  1  0  0  0  0
 13 15  2  0  0  0  0
 14 16  2  0  0  0  0
 14 32  1  0  0  0  0
 15 33  1  0  0  0  0
 16 17  1  0  0  0  0
 16 34  1  0  0  0  0
M  END
>  <PUBCHEM_COMPOUND_CID>
70906165

>  <PUBCHEM_CONFORMER_RMSD>
0.8

>  <PUBCHEM_CONFORMER_DIVERSEORDER>
1
153
19
104
114
195
158
131
148
142
203
213
174
212
108
45
83
191
8
88
183
91
64
116
159
162
137
154
170
196
166
63
82
22
123
197
145
79
182
117
3
46
175
122
144
113
60
41
90
59
156
139
141
71
101
105
48
24
205
121
77
155
149
128
211
103
214
125
2
129
58
85
208
17
132
29
98
34
189
120
26
136
138
127
207
75
163
190
157
186
150
80
65
21
67
134
15
93
171
140
44
35
178
100
147
112
201
124
10
97
43
50
11
180
192
27
51
188
164
168
202
92
31
106
109
38
130
107
193
135
56
23
36
66
199
6
176
78
73
37
86
18
14
12
177
9
62
99
68
115
133
28
167
204
76
25
96
118
69
13
179
169
61
39
172
119
95
160
74
47
52
30
16
4
57
55
152
126
181
72
53
165
94
89
185
161
102
173
184
198
81
209
54
84
49
40
210
111
87
5
20
7
42
151
110
200
33
187
146
70
206
194
32
143

>  <PUBCHEM_MMFF94_PARTIAL_CHARGES>
20
1 -0.56
11 0.54
13 0.09
14 -0.15
15 0.16
16 -0.15
17 0.41
2 -0.57
28 0.37
3 -0.73
32 0.15
33 0.15
34 0.15
35 0.4
36 0.4
4 -0.62
5 -0.9
7 0.3
8 0.28
9 0.28

>  <PUBCHEM_EFFECTIVE_ROTOR_COUNT>
8

>  <PUBCHEM_PHARMACOPHORE_FEATURES>
7
1 1 acceptor
1 12 hydrophobe
1 2 acceptor
1 3 donor
1 5 donor
3 4 5 17 cation
6 4 13 14 15 16 17 rings

>  <PUBCHEM_HEAVY_ATOM_COUNT>
17

>  <PUBCHEM_ATOM_DEF_STEREO_COUNT>
0

>  <PUBCHEM_ATOM_UDEF_STEREO_COUNT>
0

>  <PUBCHEM_BOND_DEF_STEREO_COUNT>
0

>  <PUBCHEM_BOND_UDEF_STEREO_COUNT>
0

>  <PUBCHEM_ISOTOPIC_ATOM_COUNT>
0

>  <PUBCHEM_COMPONENT_COUNT>
1

>  <PUBCHEM_CACTVS_TAUTO_COUNT>
7

>  <PUBCHEM_CONFORMER_ID>
0439F13500000001

>  <PUBCHEM_MMFF94_ENERGY>
35.5263

>  <PUBCHEM_FEATURE_SELFOVERLAP>
35.521

>  <PUBCHEM_SHAPE_FINGERPRINT>
122479 349 18409171004188766502
12403259 415 18339936934493776982
12596602 18 16877940598617199776
12633257 1 16298389106327234462
13402501 40 18412825798309617400
14123255 352 18412261744517400236
14123256 34 8574429859268259272
14251751 18 9727637215481072360
14251764 38 18196653982357506736
14251764 75 18271535238241078480
14341114 328 17095529534595949564
14774955 27 18340762659025214261
17834072 32 18341330089315496108
193927 3 11747208044666659138
20281475 54 9151166580068049518
21302155 148 18263088880559222260
21401589 2 18409738369373414819
23559900 14 18123753049826827038
270888 7 18413105061330496408
27216 239 18337109089614049402
2838139 119 18342451556736805716
2916195 48 18409167697126894841
5104073 3 18188498956406873963
59682541 52 16558482889941238740
7808743 9 18340202016144366538
9981440 41 18334580165388460002

>  <PUBCHEM_SHAPE_MULTIPOLES>
323.17
13.28
2.96
0.86
15.29
0.13
0.03
13.79
2.07
0.58
-0.15
-0.07
-0.21
1.19

>  <PUBCHEM_SHAPE_SELFOVERLAP>
643.263

>  <PUBCHEM_SHAPE_VOLUME>
190.5

>  <PUBCHEM_COORDINATE_TYPE>
2
5
10

$$$$
