71213782
 OpenBabel01182520543D

 27 28  0  0  0  0  0  0  0  0999 V2000
    5.0986   -0.2816   -0.4471 O   0  0  0  0  0  0  0  0  0  0  0  0
   -1.1606   -1.1493    0.1237 N   0  0  0  0  0  0  0  0  0  0  0  0
    0.5002    0.4938    0.5514 N   0  0  0  0  0  0  0  0  0  0  0  0
    4.4805    1.7245    0.4756 N   0  0  0  0  0  0  0  0  0  0  0  0
   -2.3766   -0.4420    0.0217 C   0  0  0  0  0  0  0  0  0  0  0  0
    0.1865   -0.7395    0.0954 C   0  0  0  0  0  0  0  0  0  0  0  0
    1.1130   -1.6402   -0.4048 C   0  0  0  0  0  0  0  0  0  0  0  0
    2.8090    0.0112    0.0211 C   0  0  0  0  0  0  0  0  0  0  0  0
    2.4472   -1.2500   -0.4393 C   0  0  0  0  0  0  0  0  0  0  0  0
   -3.5169   -0.9180    0.6687 C   0  0  0  0  0  0  0  0  0  0  0  0
   -2.4388    0.7336   -0.7264 C   0  0  0  0  0  0  0  0  0  0  0  0
    1.8067    0.8380    0.5022 C   0  0  0  0  0  0  0  0  0  0  0  0
   -4.7196   -0.2185    0.5677 C   0  0  0  0  0  0  0  0  0  0  0  0
   -3.6413    1.4331   -0.8275 C   0  0  0  0  0  0  0  0  0  0  0  0
   -4.7817    0.9571   -0.1806 C   0  0  0  0  0  0  0  0  0  0  0  0
    4.1939    0.4480   -0.0018 C   0  0  0  0  0  0  0  0  0  0  0  0
   -1.2766   -2.1170    0.4131 H   0  0  0  0  0  0  0  0  0  0  0  0
    0.8229   -2.6226   -0.7633 H   0  0  0  0  0  0  0  0  0  0  0  0
    3.1873   -1.9439   -0.8285 H   0  0  0  0  0  0  0  0  0  0  0  0
   -3.4819   -1.8324    1.2556 H   0  0  0  0  0  0  0  0  0  0  0  0
   -1.5672    1.1180   -1.2495 H   0  0  0  0  0  0  0  0  0  0  0  0
    1.9753    1.8371    0.8834 H   0  0  0  0  0  0  0  0  0  0  0  0
   -5.6075   -0.5891    1.0715 H   0  0  0  0  0  0  0  0  0  0  0  0
   -3.6906    2.3470   -1.4123 H   0  0  0  0  0  0  0  0  0  0  0  0
   -5.7182    1.5015   -0.2599 H   0  0  0  0  0  0  0  0  0  0  0  0
    3.8045    2.3791    0.8483 H   0  0  0  0  0  0  0  0  0  0  0  0
    5.4394    2.0577    0.4649 H   0  0  0  0  0  0  0  0  0  0  0  0
  1 16  2  0  0  0  0
  2  5  1  0  0  0  0
  2  6  1  0  0  0  0
  2 17  1  0  0  0  0
  3  6  2  0  0  0  0
  3 12  1  0  0  0  0
  4 16  1  0  0  0  0
  4 26  1  0  0  0  0
  4 27  1  0  0  0  0
  5 10  2  0  0  0  0
  5 11  1  0  0  0  0
  6  7  1  0  0  0  0
  7  9  2  0  0  0  0
  7 18  1  0  0  0  0
  8  9  1  0  0  0  0
  8 12  2  0  0  0  0
  8 16  1  0  0  0  0
  9 19  1  0  0  0  0
 10 13  1  0  0  0  0
 10 20  1  0  0  0  0
 11 14  2  0  0  0  0
 11 21  1  0  0  0  0
 12 22  1  0  0  0  0
 13 15  2  0  0  0  0
 13 23  1  0  0  0  0
 14 15  1  0  0  0  0
 14 24  1  0  0  0  0
 15 25  1  0  0  0  0
M  END
>  <PUBCHEM_COMPOUND_CID>
71213782

>  <PUBCHEM_CONFORMER_RMSD>
0.6

>  <PUBCHEM_CONFORMER_DIVERSEORDER>
3
6
9
5
11
16
2
15
4
8
12
10
7
14
1
13

>  <PUBCHEM_MMFF94_PARTIAL_CHARGES>
27
1 -0.57
10 -0.15
11 -0.15
12 0.16
13 -0.15
14 -0.15
15 -0.15
16 0.54
17 0.4
18 0.15
19 0.15
2 -0.6
20 0.15
21 0.15
22 0.15
23 0.15
24 0.15
25 0.15
26 0.37
27 0.37
3 -0.62
4 -0.8
5 0.1
6 0.41
7 -0.15
8 0.09
9 -0.15

>  <PUBCHEM_EFFECTIVE_ROTOR_COUNT>
3

>  <PUBCHEM_PHARMACOPHORE_FEATURES>
6
1 1 acceptor
1 2 donor
1 4 donor
3 2 3 6 cation
6 3 6 7 8 9 12 rings
6 5 10 11 13 14 15 rings

>  <PUBCHEM_HEAVY_ATOM_COUNT>
16

>  <PUBCHEM_ATOM_DEF_STEREO_COUNT>
0

>  <PUBCHEM_ATOM_UDEF_STEREO_COUNT>
0

>  <PUBCHEM_BOND_DEF_STEREO_COUNT>
0

>  <PUBCHEM_BOND_UDEF_STEREO_COUNT>
0

>  <PUBCHEM_ISOTOPIC_ATOM_COUNT>
0

>  <PUBCHEM_COMPONENT_COUNT>
1

>  <PUBCHEM_CACTVS_TAUTO_COUNT>
7

>  <PUBCHEM_CONFORMER_ID>
043EA2D600000003

>  <PUBCHEM_MMFF94_ENERGY>
60.1846

>  <PUBCHEM_FEATURE_SELFOVERLAP>
30.446

>  <PUBCHEM_SHAPE_FINGERPRINT>
10608611 8 18336262358381178213
11132069 177 17676773093776468359
11401426 45 17775562053095169450
11471102 20 18201438056149551734
11543360 7 13973679581155371522
12236239 1 16272211877437080979
12596602 18 15430042079660407692
13081056 2 18410575097753878100
13214271 11 18334012805093864783
13675066 3 18335423495270209698
14123238 8 18186239536946508983
15219456 202 18409730629979633207
15375358 24 18409729551863616651
17834072 33 17561077042583169479
17834072 8 18273503364544654270
18186145 218 17489861669830187538
200 152 17203890742886852931
20279233 1 18335426750982124539
20645477 56 18261112959152383687
20645477 70 18059580126801864550
231179 274 18410291406653085966
23402539 116 17895188935182057527
23402655 69 18059571352441589069
23557571 272 17968383359538859589
23559900 14 18338516327301560642
25 1 18343298150029517966
2916195 48 18338228366591690040
3545911 37 18408326570699919687
4047638 21 18409449193931668418
4072396 5 18271794689131611418
449060 50 18411139134412971271
5104073 3 18260831441199588163
542803 24 16559034891468770129
77779 3 18407760322195849203

>  <PUBCHEM_SHAPE_MULTIPOLES>
308.46
10.8
1.51
0.81
0.94
0.04
-0.02
3.26
0.12
0.23
-0.09
-0.26
0.05
1.04

>  <PUBCHEM_SHAPE_SELFOVERLAP>
663.526

>  <PUBCHEM_SHAPE_VOLUME>
168

>  <PUBCHEM_COORDINATE_TYPE>
2
5
10

$$$$
