71276874
 OpenBabel01182520543D

 29 30  0  0  1  0  0  0  0  0999 V2000
   -0.1149   -2.4006    0.5754 O   0  0  0  0  0  0  0  0  0  0  0  0
    1.2542   -0.5698    0.1679 N   0  0  0  0  0  0  0  0  0  0  0  0
    3.5678    2.1722   -0.4146 N   0  0  0  0  0  0  0  0  0  0  0  0
   -2.9725    0.6053   -1.0312 N   0  0  0  0  0  0  0  0  0  0  0  0
   -1.3544   -0.7530   -2.1071 N   0  0  0  0  0  0  0  0  0  0  0  0
    2.9839    1.0272    0.2588 C   0  0  2  0  0  0  0  0  0  0  0  0
    3.5640   -0.3044   -0.2183 C   0  0  0  0  0  0  0  0  0  0  0  0
    1.4940    0.8603   -0.0320 C   0  0  0  0  0  0  0  0  0  0  0  0
    2.5115   -1.3024    0.2439 C   0  0  0  0  0  0  0  0  0  0  0  0
    0.0334   -1.2022    0.3447 C   0  0  0  0  0  0  0  0  0  0  0  0
   -1.1803   -0.3741    0.2623 C   0  0  0  0  0  0  0  0  0  0  0  0
   -1.8580   -0.1526   -0.9257 C   0  0  0  0  0  0  0  0  0  0  0  0
   -1.6785    0.2203    1.4164 C   0  0  0  0  0  0  0  0  0  0  0  0
   -2.8230    1.0070    1.3481 C   0  0  0  0  0  0  0  0  0  0  0  0
   -3.4272    1.1668    0.1115 C   0  0  0  0  0  0  0  0  0  0  0  0
    3.1375    1.1196    1.3417 H   0  0  0  0  0  0  0  0  0  0  0  0
    4.5542   -0.5165    0.1958 H   0  0  0  0  0  0  0  0  0  0  0  0
    3.6392   -0.3265   -1.3132 H   0  0  0  0  0  0  0  0  0  0  0  0
    0.8672    1.4679    0.6265 H   0  0  0  0  0  0  0  0  0  0  0  0
    1.2414    1.0899   -1.0739 H   0  0  0  0  0  0  0  0  0  0  0  0
    2.4714   -2.2037   -0.3749 H   0  0  0  0  0  0  0  0  0  0  0  0
    2.6651   -1.5967    1.2880 H   0  0  0  0  0  0  0  0  0  0  0  0
    4.5612    2.2309   -0.1957 H   0  0  0  0  0  0  0  0  0  0  0  0
    3.1422    3.0302   -0.0670 H   0  0  0  0  0  0  0  0  0  0  0  0
   -1.1835    0.0785    2.3735 H   0  0  0  0  0  0  0  0  0  0  0  0
   -3.2291    1.4803    2.2346 H   0  0  0  0  0  0  0  0  0  0  0  0
   -4.3222    1.7708    0.0046 H   0  0  0  0  0  0  0  0  0  0  0  0
   -0.3562   -0.9025   -2.1866 H   0  0  0  0  0  0  0  0  0  0  0  0
   -1.8719   -0.5760   -2.9596 H   0  0  0  0  0  0  0  0  0  0  0  0
  1 10  2  0  0  0  0
  2  8  1  0  0  0  0
  2  9  1  0  0  0  0
  2 10  1  0  0  0  0
  3  6  1  0  0  0  0
  3 23  1  0  0  0  0
  3 24  1  0  0  0  0
  4 12  1  0  0  0  0
  4 15  2  0  0  0  0
  5 12  1  0  0  0  0
  5 28  1  0  0  0  0
  5 29  1  0  0  0  0
  6  7  1  0  0  0  0
  6  8  1  0  0  0  0
  6 16  1  1  0  0  0
  7  9  1  0  0  0  0
  7 17  1  0  0  0  0
  7 18  1  0  0  0  0
  8 19  1  0  0  0  0
  8 20  1  0  0  0  0
  9 21  1  0  0  0  0
  9 22  1  0  0  0  0
 10 11  1  0  0  0  0
 11 12  2  0  0  0  0
 11 13  1  0  0  0  0
 13 14  2  0  0  0  0
 13 25  1  0  0  0  0
 14 15  1  0  0  0  0
 14 26  1  0  0  0  0
 15 27  1  0  0  0  0
M  END
>  <PUBCHEM_COMPOUND_CID>
71276874

>  <PUBCHEM_CONFORMER_RMSD>
0.6

>  <PUBCHEM_CONFORMER_DIVERSEORDER>
2
19
9
17
6
18
7
16
5
4
14
11
10
15
13
3
1
12
8

>  <PUBCHEM_MMFF94_PARTIAL_CHARGES>
21
1 -0.57
10 0.54
11 0.09
12 0.41
13 -0.15
14 -0.15
15 0.16
2 -0.66
23 0.36
24 0.36
25 0.15
26 0.15
27 0.15
28 0.4
29 0.4
3 -0.99
4 -0.62
5 -0.9
6 0.27
8 0.3
9 0.3

>  <PUBCHEM_EFFECTIVE_ROTOR_COUNT>
3

>  <PUBCHEM_PHARMACOPHORE_FEATURES>
8
1 1 acceptor
1 3 cation
1 3 donor
1 4 acceptor
1 5 cation
1 5 donor
5 2 6 7 8 9 rings
6 4 11 12 13 14 15 rings

>  <PUBCHEM_HEAVY_ATOM_COUNT>
15

>  <PUBCHEM_ATOM_DEF_STEREO_COUNT>
0

>  <PUBCHEM_ATOM_UDEF_STEREO_COUNT>
1

>  <PUBCHEM_BOND_DEF_STEREO_COUNT>
0

>  <PUBCHEM_BOND_UDEF_STEREO_COUNT>
0

>  <PUBCHEM_ISOTOPIC_ATOM_COUNT>
0

>  <PUBCHEM_COMPONENT_COUNT>
1

>  <PUBCHEM_CACTVS_TAUTO_COUNT>
4

>  <PUBCHEM_CONFORMER_ID>
043F994A00000002

>  <PUBCHEM_MMFF94_ENERGY>
44.3233

>  <PUBCHEM_FEATURE_SELFOVERLAP>
40.596

>  <PUBCHEM_SHAPE_FINGERPRINT>
10857977 72 15936704674618273423
11127187 94 14189577446591766293
11769659 78 10737292367599372985
12491281 212 17775011188726038536
12932764 1 17385438830480149586
15309172 13 18186241722968954683
15342168 16 18188218705090056549
15653759 3 16588026788284404584
15775835 57 18273216378508120281
16945 1 18195534696515495155
17844478 74 17168431475679682628
18175812 5 17386014940018121859
18186145 218 18411984628779429770
18219364 16 18040994059423110852
19049666 15 16589978318175699810
19868273 293 17489590047519016081
20645476 183 17917422078297883383
20653085 51 18201444665972331991
20711985 344 12822476514196352306
20715346 28 17603309249703934234
21486144 27 18186803599565459470
21524375 3 18343585122580042483
21639500 275 18335973182174690890
23402539 116 15912757267951636777
23559900 14 15213577824102215914
25 1 18337112272068511386
25610 171 15864068737173952895
27216 239 17678179493143834664
474 4 18411700967522096776
63268167 104 18342172250180600344
74978 22 18410294735484972490
77492 1 17988354871671349835
81228 2 17388829865805580778
90316 7 13912602728102864535
9981440 41 17554863822950261952

>  <PUBCHEM_SHAPE_MULTIPOLES>
282.9
6.15
1.77
1.28
2.02
0.12
0.33
-3.05
0.27
1.01
-0.12
-1.11
0.12
-0.6

>  <PUBCHEM_SHAPE_SELFOVERLAP>
597.619

>  <PUBCHEM_SHAPE_VOLUME>
159.4

>  <PUBCHEM_COORDINATE_TYPE>
2
5
10

$$$$
