71724839
 OpenBabel01182520543D

 18 18  0  0  0  0  0  0  0  0999 V2000
   -3.0690   -1.2732    0.0097 O   0  0  0  0  0  0  0  0  0  0  0  0
    3.8950   -0.6663    0.0124 O   0  0  0  0  0  0  0  0  0  0  0  0
    0.8842    1.3945    0.0014 N   0  0  0  0  0  0  0  0  0  0  0  0
    3.0560    0.4147   -0.0032 N   0  0  0  0  0  0  0  0  0  0  0  0
   -3.2651    1.0115    0.0021 N   0  0  0  0  0  0  0  0  0  0  0  0
   -1.0651   -0.0356   -0.0029 C   0  0  0  0  0  0  0  0  0  0  0  0
   -0.2486   -1.1610   -0.0076 C   0  0  0  0  0  0  0  0  0  0  0  0
    1.6457    0.2774   -0.0031 C   0  0  0  0  0  0  0  0  0  0  0  0
    1.1338   -1.0102   -0.0076 C   0  0  0  0  0  0  0  0  0  0  0  0
   -0.4548    1.2083    0.0014 C   0  0  0  0  0  0  0  0  0  0  0  0
   -2.5122   -0.1601   -0.0026 C   0  0  0  0  0  0  0  0  0  0  0  0
   -0.6676   -2.1636   -0.0114 H   0  0  0  0  0  0  0  0  0  0  0  0
    1.7607   -1.8954   -0.0117 H   0  0  0  0  0  0  0  0  0  0  0  0
   -0.9928    2.1478    0.0056 H   0  0  0  0  0  0  0  0  0  0  0  0
    3.4701    1.3376    0.0039 H   0  0  0  0  0  0  0  0  0  0  0  0
   -2.8907    1.9518   -0.0026 H   0  0  0  0  0  0  0  0  0  0  0  0
   -4.2786    0.9533    0.0092 H   0  0  0  0  0  0  0  0  0  0  0  0
    4.3735   -0.5610   -0.8273 H   0  0  0  0  0  0  0  0  0  0  0  0
  1 11  2  0  0  0  0
  2  4  1  0  0  0  0
  2 18  1  0  0  0  0
  3  8  2  0  0  0  0
  3 10  1  0  0  0  0
  4  8  1  0  0  0  0
  4 15  1  0  0  0  0
  5 11  1  0  0  0  0
  5 16  1  0  0  0  0
  5 17  1  0  0  0  0
  6  7  1  0  0  0  0
  6 10  2  0  0  0  0
  6 11  1  0  0  0  0
  7  9  2  0  0  0  0
  7 12  1  0  0  0  0
  8  9  1  0  0  0  0
  9 13  1  0  0  0  0
 10 14  1  0  0  0  0
M  END
>  <PUBCHEM_COMPOUND_CID>
71724839

>  <PUBCHEM_CONFORMER_RMSD>
0.4

>  <PUBCHEM_CONFORMER_DIVERSEORDER>
1
2
3
4

>  <PUBCHEM_MMFF94_PARTIAL_CHARGES>
18
1 -0.57
10 0.16
11 0.54
12 0.15
13 0.15
14 0.15
15 0.4
16 0.37
17 0.37
18 0.4
2 -0.38
3 -0.62
4 -0.52
5 -0.8
6 0.09
7 -0.15
8 0.41
9 -0.15

>  <PUBCHEM_EFFECTIVE_ROTOR_COUNT>
2

>  <PUBCHEM_PHARMACOPHORE_FEATURES>
5
1 1 acceptor
1 4 donor
1 5 donor
3 3 4 8 cation
6 3 6 7 8 9 10 rings

>  <PUBCHEM_HEAVY_ATOM_COUNT>
11

>  <PUBCHEM_ATOM_DEF_STEREO_COUNT>
0

>  <PUBCHEM_ATOM_UDEF_STEREO_COUNT>
0

>  <PUBCHEM_BOND_DEF_STEREO_COUNT>
0

>  <PUBCHEM_BOND_UDEF_STEREO_COUNT>
0

>  <PUBCHEM_ISOTOPIC_ATOM_COUNT>
0

>  <PUBCHEM_COMPONENT_COUNT>
1

>  <PUBCHEM_CACTVS_TAUTO_COUNT>
12

>  <PUBCHEM_CONFORMER_ID>
04466F2700000001

>  <PUBCHEM_MMFF94_ENERGY>
33.2422

>  <PUBCHEM_FEATURE_SELFOVERLAP>
25.372

>  <PUBCHEM_SHAPE_FINGERPRINT>
10219947 1 18343022207133994014
10857977 72 18339633525129258513
11062470 55 17313386712087550500
12032990 46 18411425020252828318
12932764 1 16660633077062981453
14325111 11 18410855490293276580
16945 1 18411420604889057621
193761 8 17618222806326949742
20201158 50 18410011018218822111
21040471 1 18266740366652447181
23235685 24 18410569574257039376
23402655 69 18196918999747656597
23463225 33 18335981982873923210
23552423 10 18260831522534914575
2748010 2 18122061167671276421
29004967 10 18409452492086776203
5084963 1 18270964660430318785
528886 8 18411694366278513153

>  <PUBCHEM_SHAPE_MULTIPOLES>
199.69
5.21
1.38
0.57
1.16
0.05
0
-0.48
0.02
-0.29
0
-0.01
-0.01
0

>  <PUBCHEM_SHAPE_SELFOVERLAP>
416.216

>  <PUBCHEM_SHAPE_VOLUME>
112.1

>  <PUBCHEM_COORDINATE_TYPE>
2
5
10

$$$$
