71862551
 OpenBabel01182520543D

 30 31  0  0  0  0  0  0  0  0999 V2000
    1.9464   -2.0883   -1.2095 O   0  0  0  0  0  0  0  0  0  0  0  0
   -0.8102    0.2796   -0.2626 N   0  0  0  0  0  0  0  0  0  0  0  0
    0.5766    2.1307    0.1115 N   0  0  0  0  0  0  0  0  0  0  0  0
    0.5832   -2.2017    0.6628 N   0  0  0  0  0  0  0  0  0  0  0  0
   -3.2092    0.2448   -0.5434 C   0  0  0  0  0  0  0  0  0  0  0  0
   -4.5525    0.6567   -0.0075 C   0  0  0  0  0  0  0  0  0  0  0  0
   -3.8438   -0.5340    0.5754 C   0  0  0  0  0  0  0  0  0  0  0  0
   -2.0080    1.0863   -0.2841 C   0  0  0  0  0  0  0  0  0  0  0  0
    0.4606    0.7955   -0.0664 C   0  0  0  0  0  0  0  0  0  0  0  0
    1.5320   -0.0830   -0.0670 C   0  0  0  0  0  0  0  0  0  0  0  0
    2.8046    0.4425    0.1277 C   0  0  0  0  0  0  0  0  0  0  0  0
    1.3754   -1.5174   -0.2649 C   0  0  0  0  0  0  0  0  0  0  0  0
    1.8288    2.6049    0.2979 C   0  0  0  0  0  0  0  0  0  0  0  0
    2.9644    1.8111    0.3144 C   0  0  0  0  0  0  0  0  0  0  0  0
    0.3516   -3.6276    0.6157 C   0  0  0  0  0  0  0  0  0  0  0  0
   -3.1884   -0.2131   -1.5261 H   0  0  0  0  0  0  0  0  0  0  0  0
   -5.4207    0.4720   -0.6282 H   0  0  0  0  0  0  0  0  0  0  0  0
   -4.6183    1.5505    0.6004 H   0  0  0  0  0  0  0  0  0  0  0  0
   -3.4338   -0.4369    1.5732 H   0  0  0  0  0  0  0  0  0  0  0  0
   -4.2354   -1.5172    0.3451 H   0  0  0  0  0  0  0  0  0  0  0  0
   -2.1099    1.6186    0.6697 H   0  0  0  0  0  0  0  0  0  0  0  0
   -1.9350    1.8414   -1.0758 H   0  0  0  0  0  0  0  0  0  0  0  0
   -0.8771   -0.6461   -0.6726 H   0  0  0  0  0  0  0  0  0  0  0  0
    3.6795   -0.2024    0.1375 H   0  0  0  0  0  0  0  0  0  0  0  0
    1.8995    3.6784    0.4388 H   0  0  0  0  0  0  0  0  0  0  0  0
    3.9467    2.2428    0.4683 H   0  0  0  0  0  0  0  0  0  0  0  0
    0.1302   -1.6763    1.4051 H   0  0  0  0  0  0  0  0  0  0  0  0
   -0.5945   -3.8027    0.0977 H   0  0  0  0  0  0  0  0  0  0  0  0
    0.2829   -4.0001    1.6403 H   0  0  0  0  0  0  0  0  0  0  0  0
    1.1612   -4.1355    0.0862 H   0  0  0  0  0  0  0  0  0  0  0  0
  1 12  2  0  0  0  0
  2  8  1  0  0  0  0
  2  9  1  0  0  0  0
  2 23  1  0  0  0  0
  3  9  1  0  0  0  0
  3 13  2  0  0  0  0
  4 12  1  0  0  0  0
  4 15  1  0  0  0  0
  4 27  1  0  0  0  0
  5  6  1  0  0  0  0
  5  7  1  0  0  0  0
  5  8  1  0  0  0  0
  5 16  1  0  0  0  0
  6  7  1  0  0  0  0
  6 17  1  0  0  0  0
  6 18  1  0  0  0  0
  7 19  1  0  0  0  0
  7 20  1  0  0  0  0
  8 21  1  0  0  0  0
  8 22  1  0  0  0  0
  9 10  2  0  0  0  0
 10 11  1  0  0  0  0
 10 12  1  0  0  0  0
 11 14  2  0  0  0  0
 11 24  1  0  0  0  0
 13 14  1  0  0  0  0
 13 25  1  0  0  0  0
 14 26  1  0  0  0  0
 15 28  1  0  0  0  0
 15 29  1  0  0  0  0
 15 30  1  0  0  0  0
M  END
>  <PUBCHEM_COMPOUND_CID>
71862551

>  <PUBCHEM_CONFORMER_RMSD>
0.6

>  <PUBCHEM_CONFORMER_DIVERSEORDER>
1
30
36
11
33
34
19
5
29
32
12
2
21
24
31
6
23
13
7
4
18
17
25
37
22
15
9
10
28
3
38
35
27
8
14
16
20
26

>  <PUBCHEM_MMFF94_PARTIAL_CHARGES>
25
1 -0.57
10 0.09
11 -0.15
12 0.54
13 0.16
14 -0.15
15 0.3
16 0.1
17 0.1
18 0.1
19 0.1
2 -0.87
20 0.1
23 0.4
24 0.15
25 0.15
26 0.15
27 0.37
3 -0.62
4 -0.73
5 -0.19
6 -0.2
7 -0.2
8 0.46
9 0.41

>  <PUBCHEM_EFFECTIVE_ROTOR_COUNT>
5.6

>  <PUBCHEM_PHARMACOPHORE_FEATURES>
6
1 1 acceptor
1 2 cation
1 2 donor
1 3 acceptor
1 4 donor
6 3 9 10 11 13 14 rings

>  <PUBCHEM_HEAVY_ATOM_COUNT>
15

>  <PUBCHEM_ATOM_DEF_STEREO_COUNT>
0

>  <PUBCHEM_ATOM_UDEF_STEREO_COUNT>
0

>  <PUBCHEM_BOND_DEF_STEREO_COUNT>
0

>  <PUBCHEM_BOND_UDEF_STEREO_COUNT>
0

>  <PUBCHEM_ISOTOPIC_ATOM_COUNT>
0

>  <PUBCHEM_COMPONENT_COUNT>
1

>  <PUBCHEM_CACTVS_TAUTO_COUNT>
7

>  <PUBCHEM_CONFORMER_ID>
0448891700000001

>  <PUBCHEM_MMFF94_ENERGY>
47.5238

>  <PUBCHEM_FEATURE_SELFOVERLAP>
30.447

>  <PUBCHEM_SHAPE_FINGERPRINT>
11471102 20 18412821395788628597
12553582 1 17690846661902036795
13380535 76 18267862959434387438
14251717 144 18411414012404317711
15375358 24 18113892771946756813
15442244 35 17982454798062262657
15502708 68 18410848884623090809
19049666 15 18044367237081263333
20279233 1 18040995142451006733
20645477 70 18270954653583800437
20871998 22 18055916485448901014
21524375 3 18196643206178669580
21673915 165 18195532725906650235
21730867 7 18409729556195572205
2255824 54 18411140199491072591
23530152 11 18337955717593171070
23557571 272 16733256847060151861
23558518 356 17468189394220931736
25 1 18341330088766928540
257057 1 17615679640132211570
2748010 2 18262817274731256467
3060560 45 18411698802974669844
33824 294 18408882953964856547
7364860 26 18343584010252071605
81228 2 17184728729063326961
81539 233 18408036333858206053
8272917 22 18342179943005130109
9709674 26 18409732876685424279

>  <PUBCHEM_SHAPE_MULTIPOLES>
287.88
6.18
3.35
0.79
8.11
2.89
-0.06
-2.5
0.23
-2.39
0.55
-0.04
0.27
0.61

>  <PUBCHEM_SHAPE_SELFOVERLAP>
593.69

>  <PUBCHEM_SHAPE_VOLUME>
165.5

>  <PUBCHEM_COORDINATE_TYPE>
2
5
10

$$$$
