7221440
 OpenBabel01182520543D

 27 27  0  0  0  0  0  0  0  0999 V2000
   -1.3343   -2.3679   -1.1196 O   0  0  0  0  0  0  0  0  0  0  0  0
    1.1176   -0.2163    0.0148 N   0  0  0  0  0  0  0  0  0  0  0  0
   -0.1423    1.7643    0.0254 N   0  3  0  0  0  0  0  0  0  0  0  0
   -1.3887   -2.4025    1.1727 N   0  0  0  0  0  0  0  0  0  0  0  0
    2.3844    0.4741    0.0464 C   0  0  0  0  0  0  0  0  0  0  0  0
    3.5415   -0.5175   -0.0131 C   0  0  0  0  0  0  0  0  0  0  0  0
   -0.0963    0.4074    0.0052 C   0  0  0  0  0  0  0  0  0  0  0  0
   -1.3233   -0.2822   -0.0257 C   0  0  0  0  0  0  0  0  0  0  0  0
    4.9029    0.1638   -0.0281 C   0  0  0  0  0  0  0  0  0  0  0  0
   -2.5213    0.4260   -0.0344 C   0  0  0  0  0  0  0  0  0  0  0  0
   -1.2810    2.4708    0.0176 C   0  0  0  0  0  0  0  0  0  0  0  0
   -2.5047    1.8175   -0.0125 C   0  0  0  0  0  0  0  0  0  0  0  0
   -1.3545   -1.7374   -0.0488 C   0  0  0  0  0  0  0  0  0  0  0  0
    2.4637    1.0699    0.9635 H   0  0  0  0  0  0  0  0  0  0  0  0
    2.4584    1.1565   -0.8091 H   0  0  0  0  0  0  0  0  0  0  0  0
    3.4465   -1.1427   -0.9096 H   0  0  0  0  0  0  0  0  0  0  0  0
    3.4907   -1.1965    0.8470 H   0  0  0  0  0  0  0  0  0  0  0  0
    1.1284   -1.2089    0.2236 H   0  0  0  0  0  0  0  0  0  0  0  0
    0.7316    2.2866    0.0497 H   0  0  0  0  0  0  0  0  0  0  0  0
    5.0029    0.8178   -0.9001 H   0  0  0  0  0  0  0  0  0  0  0  0
    5.0470    0.7676    0.8735 H   0  0  0  0  0  0  0  0  0  0  0  0
    5.7012   -0.5838   -0.0692 H   0  0  0  0  0  0  0  0  0  0  0  0
   -3.4747   -0.0954   -0.0585 H   0  0  0  0  0  0  0  0  0  0  0  0
   -1.1728    3.5464    0.0365 H   0  0  0  0  0  0  0  0  0  0  0  0
   -3.4314    2.3812   -0.0190 H   0  0  0  0  0  0  0  0  0  0  0  0
   -1.3975   -1.9049    2.0574 H   0  0  0  0  0  0  0  0  0  0  0  0
   -1.4047   -3.4160    1.2147 H   0  0  0  0  0  0  0  0  0  0  0  0
  1 13  2  0  0  0  0
  2  5  1  0  0  0  0
  2  7  1  0  0  0  0
  2 18  1  0  0  0  0
  3  7  1  0  0  0  0
  3 11  2  0  0  0  0
  3 19  1  0  0  0  0
  4 13  1  0  0  0  0
  4 26  1  0  0  0  0
  4 27  1  0  0  0  0
  5  6  1  0  0  0  0
  5 14  1  0  0  0  0
  5 15  1  0  0  0  0
  6  9  1  0  0  0  0
  6 16  1  0  0  0  0
  6 17  1  0  0  0  0
  7  8  2  0  0  0  0
  8 10  1  0  0  0  0
  8 13  1  0  0  0  0
  9 20  1  0  0  0  0
  9 21  1  0  0  0  0
  9 22  1  0  0  0  0
 10 12  2  0  0  0  0
 10 23  1  0  0  0  0
 11 12  1  0  0  0  0
 11 24  1  0  0  0  0
 12 25  1  0  0  0  0
M  CHG  1   3   1
M  END
>  <PUBCHEM_COMPOUND_CID>
7221440

>  <PUBCHEM_CONFORMER_RMSD>
0.6

>  <PUBCHEM_CONFORMER_DIVERSEORDER>
2
23
15
25
19
10
22
11
24
17
14
12
18
21
1
13
7
20
26
16
8
9
5
6
3
4

>  <PUBCHEM_MMFF94_PARTIAL_CHARGES>
18
1 -0.57
10 -0.15
11 0.21
12 -0.15
13 0.54
18 0.4
19 0.46
2 -0.87
23 0.15
24 0.15
25 0.15
26 0.37
27 0.37
3 -0.18
4 -0.8
5 0.37
7 0.46
8 0.09

>  <PUBCHEM_EFFECTIVE_ROTOR_COUNT>
4

>  <PUBCHEM_PHARMACOPHORE_FEATURES>
8
1 1 acceptor
1 2 cation
1 2 donor
1 3 acceptor
1 3 donor
1 4 donor
1 9 hydrophobe
6 3 7 8 10 11 12 rings

>  <PUBCHEM_HEAVY_ATOM_COUNT>
13

>  <PUBCHEM_ATOM_DEF_STEREO_COUNT>
0

>  <PUBCHEM_ATOM_UDEF_STEREO_COUNT>
0

>  <PUBCHEM_BOND_DEF_STEREO_COUNT>
0

>  <PUBCHEM_BOND_UDEF_STEREO_COUNT>
0

>  <PUBCHEM_ISOTOPIC_ATOM_COUNT>
0

>  <PUBCHEM_COMPONENT_COUNT>
1

>  <PUBCHEM_CACTVS_TAUTO_COUNT>
10

>  <PUBCHEM_CONFORMER_ID>
006E30C000000002

>  <PUBCHEM_MMFF94_ENERGY>
38.6906

>  <PUBCHEM_FEATURE_SELFOVERLAP>
40.635

>  <PUBCHEM_SHAPE_FINGERPRINT>
11357001 24 18333739038955761595
12500047 106 18340761547214318168
12716758 59 18411974754533721416
13024252 1 16587745330461273721
13380535 76 18268709420316349822
15669948 3 18410285909316519194
16945 1 18342443829647645353
193761 8 18050567645053723621
20510252 161 18200032824397112040
20524608 308 18343580728944595142
20645476 183 17749105565283600625
20645477 56 18411702050249727904
20871998 184 18342745134403972287
20871998 22 17833271196136230707
21524375 3 18194678159872520793
23402539 116 18343010086947398637
23557571 272 18271537472151203084
23559900 14 18272084956269879906
257057 1 17838324534339649727
2748010 2 18124024904176287389
3071541 12 17116073591027416581
366044 4 18339078177542510809
43471831 8 18118122472487314347
6333449 129 18341328920488299148
7364860 26 17405425499256848021
75552 356 18409730664344574860
81228 2 18337661027065452785
9709674 26 18342742875789465814

>  <PUBCHEM_SHAPE_MULTIPOLES>
246.72
5.92
2.59
0.75
10.54
0.68
-0.01
-0.95
0.06
-2.55
-0.05
-0.2
0.38
0.02

>  <PUBCHEM_SHAPE_SELFOVERLAP>
500.104

>  <PUBCHEM_SHAPE_VOLUME>
143.9

>  <PUBCHEM_COORDINATE_TYPE>
2
5
10

$$$$
