72212056
 OpenBabel01182520543D

 18 18  0  0  0  0  0  0  0  0999 V2000
   -1.7447    1.3786    0.8735 F   0  0  0  0  0  0  0  0  0  0  0  0
   -3.1418    0.8311   -0.7158 F   0  0  0  0  0  0  0  0  0  0  0  0
   -3.1100   -0.2925    1.1466 F   0  0  0  0  0  0  0  0  0  0  0  0
   -1.6686   -1.6138   -0.9807 O   0  0  0  0  0  0  0  0  0  0  0  0
    2.3221   -1.0087    0.5824 N   0  0  0  0  0  0  0  0  0  0  0  0
    4.2045    0.4094    0.2330 N   0  0  0  0  0  0  0  0  0  0  0  0
    0.1488   -0.3193   -0.2219 C   0  0  0  0  0  0  0  0  0  0  0  0
    0.6981    0.8572   -0.7197 C   0  0  0  0  0  0  0  0  0  0  0  0
   -1.2682   -0.6037   -0.3655 C   0  0  0  0  0  0  0  0  0  0  0  0
    0.9959   -1.2116    0.4153 C   0  0  0  0  0  0  0  0  0  0  0  0
    2.0584    1.1017   -0.5672 C   0  0  0  0  0  0  0  0  0  0  0  0
    2.8201    0.1458    0.0855 C   0  0  0  0  0  0  0  0  0  0  0  0
   -2.3147    0.3257    0.2344 C   0  0  0  0  0  0  0  0  0  0  0  0
    0.0781    1.5889   -1.2307 H   0  0  0  0  0  0  0  0  0  0  0  0
    0.6264   -2.1464    0.8260 H   0  0  0  0  0  0  0  0  0  0  0  0
    2.4940    2.0175   -0.9533 H   0  0  0  0  0  0  0  0  0  0  0  0
    4.6597    0.9947   -0.4566 H   0  0  0  0  0  0  0  0  0  0  0  0
    4.7583   -0.2946    0.7051 H   0  0  0  0  0  0  0  0  0  0  0  0
  1 13  1  0  0  0  0
  2 13  1  0  0  0  0
  3 13  1  0  0  0  0
  4  9  2  0  0  0  0
  5 10  1  0  0  0  0
  5 12  2  0  0  0  0
  6 12  1  0  0  0  0
  6 17  1  0  0  0  0
  6 18  1  0  0  0  0
  7  8  1  0  0  0  0
  7  9  1  0  0  0  0
  7 10  2  0  0  0  0
  8 11  2  0  0  0  0
  8 14  1  0  0  0  0
  9 13  1  0  0  0  0
 10 15  1  0  0  0  0
 11 12  1  0  0  0  0
 11 16  1  0  0  0  0
M  END
>  <PUBCHEM_COMPOUND_CID>
72212056

>  <PUBCHEM_CONFORMER_RMSD>
0.6

>  <PUBCHEM_CONFORMER_DIVERSEORDER>
1
3
4
2

>  <PUBCHEM_MMFF94_PARTIAL_CHARGES>
18
1 -0.34
10 0.16
11 -0.15
12 0.41
13 1.08
14 0.15
15 0.15
16 0.15
17 0.4
18 0.4
2 -0.34
3 -0.34
4 -0.57
5 -0.62
6 -0.9
7 0.09
8 -0.15
9 0.42

>  <PUBCHEM_EFFECTIVE_ROTOR_COUNT>
2

>  <PUBCHEM_PHARMACOPHORE_FEATURES>
4
1 4 acceptor
1 6 donor
3 5 6 12 cation
6 5 7 8 10 11 12 rings

>  <PUBCHEM_HEAVY_ATOM_COUNT>
13

>  <PUBCHEM_ATOM_DEF_STEREO_COUNT>
0

>  <PUBCHEM_ATOM_UDEF_STEREO_COUNT>
0

>  <PUBCHEM_BOND_DEF_STEREO_COUNT>
0

>  <PUBCHEM_BOND_UDEF_STEREO_COUNT>
0

>  <PUBCHEM_ISOTOPIC_ATOM_COUNT>
0

>  <PUBCHEM_COMPONENT_COUNT>
1

>  <PUBCHEM_CACTVS_TAUTO_COUNT>
5

>  <PUBCHEM_CONFORMER_ID>
044DDE5800000001

>  <PUBCHEM_MMFF94_ENERGY>
38.8405

>  <PUBCHEM_FEATURE_SELFOVERLAP>
20.297

>  <PUBCHEM_SHAPE_FINGERPRINT>
10219947 1 18040715861938716828
11132069 177 18340195363155804280
11471102 22 17749686141682597680
12932764 1 18411981394553089388
13214271 11 17821727243040749572
13839132 238 17130720370004205857
14144814 61 18411982429645410984
14325111 11 18260830423086642340
15775835 57 18413673508440902689
16945 1 18201722846756508524
17844478 74 17095243609510887444
200 152 18335975471883071631
23402539 116 17489580165216149133
2748010 2 17899398806544015382
3248919 1 17418374701036809630
369184 2 17821446859244207771
528886 8 18260259759451033250
63268167 104 18334290946637883360

>  <PUBCHEM_SHAPE_MULTIPOLES>
229.88
5.45
1.33
0.91
1.3
0.11
-0.01
-0.81
-0.83
-0.09
0.09
-0.44
0.02
-0.4

>  <PUBCHEM_SHAPE_SELFOVERLAP>
485.634

>  <PUBCHEM_SHAPE_VOLUME>
129.9

>  <PUBCHEM_COORDINATE_TYPE>
2
5
10

$$$$
