73012506
 OpenBabel01182520543D

 17 17  0  0  0  0  0  0  0  0999 V2000
   -3.6088   -1.5314    0.0017 I   0  0  0  0  0  0  0  0  0  0  0  0
    2.3978   -1.0533   -1.1188 O   0  0  0  0  0  0  0  0  0  0  0  0
   -0.8728    1.8091    0.0207 N   0  0  0  0  0  0  0  0  0  0  0  0
    1.4885    2.0195   -0.0021 N   0  0  0  0  0  0  0  0  0  0  0  0
    2.4154   -1.1013    1.1737 N   0  0  0  0  0  0  0  0  0  0  0  0
    0.5058   -0.1764   -0.0237 C   0  0  0  0  0  0  0  0  0  0  0  0
    0.3330    1.1982   -0.0017 C   0  0  0  0  0  0  0  0  0  0  0  0
   -0.6322   -0.9755   -0.0229 C   0  0  0  0  0  0  0  0  0  0  0  0
   -1.8903   -0.3840   -0.0002 C   0  0  0  0  0  0  0  0  0  0  0  0
    1.8195   -0.8048   -0.0475 C   0  0  0  0  0  0  0  0  0  0  0  0
   -1.9559    0.9999    0.0209 C   0  0  0  0  0  0  0  0  0  0  0  0
   -0.5301   -2.0584   -0.0403 H   0  0  0  0  0  0  0  0  0  0  0  0
   -2.9047    1.5279    0.0392 H   0  0  0  0  0  0  0  0  0  0  0  0
    2.3303    1.6717    0.4400 H   0  0  0  0  0  0  0  0  0  0  0  0
    1.3313    3.0200    0.0101 H   0  0  0  0  0  0  0  0  0  0  0  0
    1.9613   -0.8984    2.0586 H   0  0  0  0  0  0  0  0  0  0  0  0
    3.3323   -1.5335    1.2157 H   0  0  0  0  0  0  0  0  0  0  0  0
  1  9  1  0  0  0  0
  2 10  2  0  0  0  0
  3  7  1  0  0  0  0
  3 11  2  0  0  0  0
  4  7  1  0  0  0  0
  4 14  1  0  0  0  0
  4 15  1  0  0  0  0
  5 10  1  0  0  0  0
  5 16  1  0  0  0  0
  5 17  1  0  0  0  0
  6  7  2  0  0  0  0
  6  8  1  0  0  0  0
  6 10  1  0  0  0  0
  8  9  2  0  0  0  0
  8 12  1  0  0  0  0
  9 11  1  0  0  0  0
 11 13  1  0  0  0  0
M  END
>  <PUBCHEM_COMPOUND_CID>
73012506

>  <PUBCHEM_CONFORMER_RMSD>
0.4

>  <PUBCHEM_CONFORMER_DIVERSEORDER>
2
3
1

>  <PUBCHEM_MMFF94_PARTIAL_CHARGES>
17
1 -0.08
10 0.54
11 0.16
12 0.15
13 0.15
14 0.4
15 0.4
16 0.37
17 0.37
2 -0.57
3 -0.62
4 -0.9
5 -0.8
6 0.09
7 0.41
8 -0.15
9 0.08

>  <PUBCHEM_EFFECTIVE_ROTOR_COUNT>
1

>  <PUBCHEM_PHARMACOPHORE_FEATURES>
7
1 1 hydrophobe
1 2 acceptor
1 3 acceptor
1 4 cation
1 4 donor
1 5 donor
6 3 6 7 8 9 11 rings

>  <PUBCHEM_HEAVY_ATOM_COUNT>
11

>  <PUBCHEM_ATOM_DEF_STEREO_COUNT>
0

>  <PUBCHEM_ATOM_UDEF_STEREO_COUNT>
0

>  <PUBCHEM_BOND_DEF_STEREO_COUNT>
0

>  <PUBCHEM_BOND_UDEF_STEREO_COUNT>
0

>  <PUBCHEM_ISOTOPIC_ATOM_COUNT>
0

>  <PUBCHEM_COMPONENT_COUNT>
1

>  <PUBCHEM_CACTVS_TAUTO_COUNT>
7

>  <PUBCHEM_CONFORMER_ID>
045A151A00000002

>  <PUBCHEM_MMFF94_ENERGY>
40.6488

>  <PUBCHEM_FEATURE_SELFOVERLAP>
35.521

>  <PUBCHEM_SHAPE_FINGERPRINT>
10857977 72 18342446007043018850
12423570 1 18059561529424277515
12932764 1 17967813855971791703
14128692 85 18411429409593120093
161256 15 18339084898886728341
16945 1 18266741264495888293
20645477 70 18267861864941134887
20653091 64 18335983146419638120
20871998 184 18201431428951925159
20871998 22 18342462538446214927
21040471 1 17690280404617802860
21501502 16 18410295834943930609
21501925 9 18339630248312090579
23552423 10 18260834842534221373
241688 4 18408604738652273305
2748010 2 18410567414263211429
5084963 1 17988649579484705299
528862 383 18194115446179055143
7364860 26 18129103501029613656
81539 233 17900817463752936085

>  <PUBCHEM_SHAPE_MULTIPOLES>
217.5
4.61
1.99
0.8
3.3
0.71
-0.02
-2.42
-0.04
-0.49
-0.03
-0.31
-0.28
-0.03

>  <PUBCHEM_SHAPE_SELFOVERLAP>
434.073

>  <PUBCHEM_SHAPE_VOLUME>
132.6

>  <PUBCHEM_COORDINATE_TYPE>
2
5
10

$$$$
