737633
 OpenBabel01182520543D

 15 15  0  0  0  0  0  0  0  0999 V2000
   -2.8317    0.6774    0.0003 O   0  0  0  0  0  0  0  0  0  0  0  0
    1.7311   -0.7509    0.0005 N   0  0  0  0  0  0  0  0  0  0  0  0
   -0.0552   -2.3094   -0.0006 N   0  0  0  0  0  0  0  0  0  0  0  0
   -0.5518    0.0449    0.0000 C   0  0  0  0  0  0  0  0  0  0  0  0
    0.3964   -0.9655    0.0002 C   0  0  0  0  0  0  0  0  0  0  0  0
   -0.1010    1.3602   -0.0004 C   0  0  0  0  0  0  0  0  0  0  0  0
    1.2648    1.6212   -0.0003 C   0  0  0  0  0  0  0  0  0  0  0  0
    2.1316    0.5403    0.0002 C   0  0  0  0  0  0  0  0  0  0  0  0
   -1.9842   -0.2182    0.0001 C   0  0  0  0  0  0  0  0  0  0  0  0
   -0.7929    2.1981   -0.0007 H   0  0  0  0  0  0  0  0  0  0  0  0
    1.6392    2.6384   -0.0006 H   0  0  0  0  0  0  0  0  0  0  0  0
    3.2062    0.6902    0.0003 H   0  0  0  0  0  0  0  0  0  0  0  0
   -2.3170   -1.2681    0.0000 H   0  0  0  0  0  0  0  0  0  0  0  0
   -0.5590   -2.5767    0.8405 H   0  0  0  0  0  0  0  0  0  0  0  0
   -0.5579   -2.5762   -0.8424 H   0  0  0  0  0  0  0  0  0  0  0  0
  1  9  2  0  0  0  0
  2  5  1  0  0  0  0
  2  8  2  0  0  0  0
  3  5  1  0  0  0  0
  3 14  1  0  0  0  0
  3 15  1  0  0  0  0
  4  5  2  0  0  0  0
  4  6  1  0  0  0  0
  4  9  1  0  0  0  0
  6  7  2  0  0  0  0
  6 10  1  0  0  0  0
  7  8  1  0  0  0  0
  7 11  1  0  0  0  0
  8 12  1  0  0  0  0
  9 13  1  0  0  0  0
M  END
>  <PUBCHEM_COMPOUND_CID>
737633

>  <PUBCHEM_CONFORMER_RMSD>
0.4

>  <PUBCHEM_CONFORMER_DIVERSEORDER>
1
2

>  <PUBCHEM_MMFF94_PARTIAL_CHARGES>
15
1 -0.57
10 0.15
11 0.15
12 0.15
13 0.06
14 0.4
15 0.4
2 -0.62
3 -0.9
4 0.09
5 0.41
6 -0.15
7 -0.15
8 0.16
9 0.42

>  <PUBCHEM_EFFECTIVE_ROTOR_COUNT>
1

>  <PUBCHEM_PHARMACOPHORE_FEATURES>
5
1 1 acceptor
1 2 acceptor
1 3 cation
1 3 donor
6 2 4 5 6 7 8 rings

>  <PUBCHEM_HEAVY_ATOM_COUNT>
9

>  <PUBCHEM_ATOM_DEF_STEREO_COUNT>
0

>  <PUBCHEM_ATOM_UDEF_STEREO_COUNT>
0

>  <PUBCHEM_BOND_DEF_STEREO_COUNT>
0

>  <PUBCHEM_BOND_UDEF_STEREO_COUNT>
0

>  <PUBCHEM_ISOTOPIC_ATOM_COUNT>
0

>  <PUBCHEM_COMPONENT_COUNT>
1

>  <PUBCHEM_CACTVS_TAUTO_COUNT>
5

>  <PUBCHEM_CONFORMER_ID>
000B416100000001

>  <PUBCHEM_MMFF94_ENERGY>
38.5065

>  <PUBCHEM_FEATURE_SELFOVERLAP>
25.371

>  <PUBCHEM_SHAPE_FINGERPRINT>
16945 1 18410575063220014372
18185500 45 18269552732760157743
21040471 1 18266740366673650116
23402655 69 18268132194577783589
23552423 10 17902805058669186542
241688 4 17473547949621123002
2748010 2 18337956804130063783
29004967 10 18334862675456998073
5084963 1 18130507525954532297

>  <PUBCHEM_SHAPE_MULTIPOLES>
169.38
2.85
1.85
0.59
1.1
0.68
0
-0.8
0
-0.18
0
-0.02
-0.02
0

>  <PUBCHEM_SHAPE_SELFOVERLAP>
353.53

>  <PUBCHEM_SHAPE_VOLUME>
95.4

>  <PUBCHEM_COORDINATE_TYPE>
2
5
10

$$$$
