73885319
 OpenBabel01182520543D

 25 27  0  0  0  0  0  0  0  0999 V2000
    0.9453    2.0865    1.7782 O   0  0  0  0  0  0  0  0  0  0  0  0
   -0.5320    1.5216    0.1034 N   0  0  0  0  0  0  0  0  0  0  0  0
    0.1570   -1.4415    0.5185 N   0  0  0  0  0  0  0  0  0  0  0  0
   -2.0543   -1.6390    0.9903 N   0  0  0  0  0  0  0  0  0  0  0  0
    2.2114   -1.6969   -0.5151 N   0  0  0  0  0  0  0  0  0  0  0  0
   -1.2966    0.4898   -0.0583 C   0  0  0  0  0  0  0  0  0  0  0  0
   -2.5891    0.5832   -0.7939 C   0  0  0  0  0  0  0  0  0  0  0  0
   -1.0108   -0.8828    0.5063 C   0  0  0  0  0  0  0  0  0  0  0  0
    1.6318    0.5051    0.2205 C   0  0  0  0  0  0  0  0  0  0  0  0
    1.3229   -0.8352    0.0364 C   0  0  0  0  0  0  0  0  0  0  0  0
   -3.5117   -0.3521   -0.5371 C   0  0  0  0  0  0  0  0  0  0  0  0
    0.6428    1.4181    0.7970 C   0  0  0  0  0  0  0  0  0  0  0  0
   -2.7944    1.7157   -1.7457 C   0  0  0  0  0  0  0  0  0  0  0  0
    2.8819    0.9901   -0.1590 C   0  0  0  0  0  0  0  0  0  0  0  0
   -3.2142   -1.3787    0.4832 C   0  0  0  0  0  0  0  0  0  0  0  0
    3.7959    0.1183   -0.7326 C   0  0  0  0  0  0  0  0  0  0  0  0
    3.4140   -1.2023   -0.8921 C   0  0  0  0  0  0  0  0  0  0  0  0
   -4.4879   -0.3637   -1.0053 H   0  0  0  0  0  0  0  0  0  0  0  0
   -2.7620    2.6743   -1.2179 H   0  0  0  0  0  0  0  0  0  0  0  0
   -3.7620    1.6485   -2.2544 H   0  0  0  0  0  0  0  0  0  0  0  0
   -2.0149    1.7143   -2.5145 H   0  0  0  0  0  0  0  0  0  0  0  0
    3.1437    2.0356   -0.0252 H   0  0  0  0  0  0  0  0  0  0  0  0
   -4.0843   -1.9650    0.8206 H   0  0  0  0  0  0  0  0  0  0  0  0
    4.7747    0.4607   -1.0476 H   0  0  0  0  0  0  0  0  0  0  0  0
    4.0899   -1.9258   -1.3361 H   0  0  0  0  0  0  0  0  0  0  0  0
  1 12  2  0  0  0  0
  2  6  2  0  0  0  0
  2 12  1  0  0  0  0
  3  8  2  0  0  0  0
  3 10  1  0  0  0  0
  4  8  1  0  0  0  0
  4 15  2  0  0  0  0
  5 10  1  0  0  0  0
  5 17  2  0  0  0  0
  6  7  1  0  0  0  0
  6  8  1  0  0  0  0
  7 11  2  0  0  0  0
  7 13  1  0  0  0  0
  9 10  2  0  0  0  0
  9 12  1  0  0  0  0
  9 14  1  0  0  0  0
 11 15  1  0  0  0  0
 11 18  1  0  0  0  0
 13 19  1  0  0  0  0
 13 20  1  0  0  0  0
 13 21  1  0  0  0  0
 14 16  2  0  0  0  0
 14 22  1  0  0  0  0
 15 23  1  0  0  0  0
 16 17  1  0  0  0  0
 16 24  1  0  0  0  0
 17 25  1  0  0  0  0
M  END
>  <PUBCHEM_COMPOUND_CID>
73885319

>  <PUBCHEM_CONFORMER_RMSD>
0.4

>  <PUBCHEM_CONFORMER_DIVERSEORDER>
1
2

>  <PUBCHEM_MMFF94_PARTIAL_CHARGES>
22
1 -0.57
10 0.49
11 -0.14
12 0.69
13 0.14
14 -0.15
15 0.38
16 -0.15
17 0.16
18 0.15
2 -0.66
22 0.15
23 0.06
24 0.15
25 0.15
3 -0.63
4 -0.66
5 -0.62
6 0.44
7 -0.12
8 0.66
9 0.09

>  <PUBCHEM_EFFECTIVE_ROTOR_COUNT>
0

>  <PUBCHEM_PHARMACOPHORE_FEATURES>
9
1 1 acceptor
1 2 acceptor
1 2 donor
1 4 acceptor
1 5 acceptor
3 3 4 8 cation
6 4 6 7 8 11 15 rings
6 5 9 10 14 16 17 rings
7 2 3 6 8 9 10 12 rings

>  <PUBCHEM_HEAVY_ATOM_COUNT>
17

>  <PUBCHEM_ATOM_DEF_STEREO_COUNT>
0

>  <PUBCHEM_ATOM_UDEF_STEREO_COUNT>
0

>  <PUBCHEM_BOND_DEF_STEREO_COUNT>
0

>  <PUBCHEM_BOND_UDEF_STEREO_COUNT>
0

>  <PUBCHEM_ISOTOPIC_ATOM_COUNT>
0

>  <PUBCHEM_COMPONENT_COUNT>
1

>  <PUBCHEM_CACTVS_TAUTO_COUNT>
6

>  <PUBCHEM_CONFORMER_ID>
0467668700000001

>  <PUBCHEM_MMFF94_ENERGY>
61.2148

>  <PUBCHEM_FEATURE_SELFOVERLAP>
45.757

>  <PUBCHEM_SHAPE_FINGERPRINT>
10498660 4 17531795867057209949
10608611 8 18333730242868039972
11640471 11 15213288712673289069
12491281 212 16805609135456521900
13296908 3 18272932717292517430
13299463 15 18408887338646515245
14251745 187 18261948634886032573
15219456 202 18410856606889711098
15906896 17 17199125309147611448
16945 1 18118402847777979424
17357779 13 18190170381738051751
17844478 74 18115037406126359419
1813 80 16343164475396016460
18186145 218 18262801761398761884
19049666 15 18412254030540073377
200 152 17917993841518758582
20201158 50 18411985766914329102
20361792 2 17132112424850073564
20645477 70 17917988382203934076
20871999 31 18187081741700530165
22721475 48 18411426136748854225
22802520 49 18408885139639097037
23114952 82 18335433352325493796
23493267 7 17312821576275318265
23526113 38 18412257328942808530
23557571 272 17822293538916268837
23559900 14 18338230446009975818
25 1 18191861219978003117
2748010 2 18266168620606120705
3286 77 17987242312244145443
3323516 105 18341327868363496167
474 4 14997425013828685870
6438718 38 16915396402583170641
77492 1 15913332432797114457
9981440 41 15797393493584432276

>  <PUBCHEM_SHAPE_MULTIPOLES>
324.06
6.11
2.02
1.22
0.74
0.14
0.03
-0.86
-2.29
-0.37
0.24
-0.19
0.51
1.37

>  <PUBCHEM_SHAPE_SELFOVERLAP>
722.686

>  <PUBCHEM_SHAPE_VOLUME>
170.2

>  <PUBCHEM_COORDINATE_TYPE>
2
5
10

$$$$
