76848702
 OpenBabel01182520543D

 18 18  0  0  0  0  0  0  0  0999 V2000
   -3.4922   -0.1959   -0.0012 O   0  0  0  0  0  0  0  0  0  0  0  0
    0.4785   -1.5601    0.0013 N   0  0  0  0  0  0  0  0  0  0  0  0
    2.7914   -1.0330   -0.0028 N   0  0  0  0  0  0  0  0  0  0  0  0
    1.1820    0.7529    0.0002 C   0  0  0  0  0  0  0  0  0  0  0  0
   -0.1460    1.1645    0.0004 C   0  0  0  0  0  0  0  0  0  0  0  0
    1.4390   -0.6087    0.0006 C   0  0  0  0  0  0  0  0  0  0  0  0
   -1.1623    0.2155    0.0010 C   0  0  0  0  0  0  0  0  0  0  0  0
    2.2691    1.7734    0.0004 C   0  0  0  0  0  0  0  0  0  0  0  0
   -0.8005   -1.1221    0.0014 C   0  0  0  0  0  0  0  0  0  0  0  0
   -2.5590    0.6134   -0.0013 C   0  0  0  0  0  0  0  0  0  0  0  0
   -0.3914    2.2239    0.0006 H   0  0  0  0  0  0  0  0  0  0  0  0
    2.8299    1.7358    0.9400 H   0  0  0  0  0  0  0  0  0  0  0  0
    2.9537    1.6122   -0.8390 H   0  0  0  0  0  0  0  0  0  0  0  0
    1.8714    2.7891   -0.1030 H   0  0  0  0  0  0  0  0  0  0  0  0
   -1.5416   -1.9156    0.0015 H   0  0  0  0  0  0  0  0  0  0  0  0
    3.4833   -0.4579    0.4608 H   0  0  0  0  0  0  0  0  0  0  0  0
    2.9481   -2.0338   -0.0115 H   0  0  0  0  0  0  0  0  0  0  0  0
   -2.7640    1.6975   -0.0030 H   0  0  0  0  0  0  0  0  0  0  0  0
  1 10  2  0  0  0  0
  2  6  2  0  0  0  0
  2  9  1  0  0  0  0
  3  6  1  0  0  0  0
  3 16  1  0  0  0  0
  3 17  1  0  0  0  0
  4  5  2  0  0  0  0
  4  6  1  0  0  0  0
  4  8  1  0  0  0  0
  5  7  1  0  0  0  0
  5 11  1  0  0  0  0
  7  9  2  0  0  0  0
  7 10  1  0  0  0  0
  8 12  1  0  0  0  0
  8 13  1  0  0  0  0
  8 14  1  0  0  0  0
  9 15  1  0  0  0  0
 10 18  1  0  0  0  0
M  END
>  <PUBCHEM_COMPOUND_CID>
76848702

>  <PUBCHEM_CONFORMER_RMSD>
0.4

>  <PUBCHEM_CONFORMER_DIVERSEORDER>
1
2

>  <PUBCHEM_MMFF94_PARTIAL_CHARGES>
15
1 -0.57
10 0.42
11 0.15
15 0.15
16 0.4
17 0.4
18 0.06
2 -0.62
3 -0.9
4 -0.14
5 -0.15
6 0.41
7 0.09
8 0.14
9 0.16

>  <PUBCHEM_EFFECTIVE_ROTOR_COUNT>
1

>  <PUBCHEM_PHARMACOPHORE_FEATURES>
4
1 1 acceptor
1 3 donor
3 2 3 6 cation
6 2 4 5 6 7 9 rings

>  <PUBCHEM_HEAVY_ATOM_COUNT>
10

>  <PUBCHEM_ATOM_DEF_STEREO_COUNT>
0

>  <PUBCHEM_ATOM_UDEF_STEREO_COUNT>
0

>  <PUBCHEM_BOND_DEF_STEREO_COUNT>
0

>  <PUBCHEM_BOND_UDEF_STEREO_COUNT>
0

>  <PUBCHEM_ISOTOPIC_ATOM_COUNT>
0

>  <PUBCHEM_COMPONENT_COUNT>
1

>  <PUBCHEM_CACTVS_TAUTO_COUNT>
5

>  <PUBCHEM_CONFORMER_ID>
04949E3E00000001

>  <PUBCHEM_MMFF94_ENERGY>
31.7603

>  <PUBCHEM_FEATURE_SELFOVERLAP>
20.297

>  <PUBCHEM_SHAPE_FINGERPRINT>
12423570 1 17845928520433777606
12932764 1 17458620086762562097
13380535 21 18193008212136790378
13380535 76 18266454485239705482
14325111 11 18410855490615127393
16945 1 18338516335279065283
193761 8 18050287269329872582
20645477 70 18412258424824445263
21040471 1 18266740370994971684
23235685 24 18338229491662079232
23402655 69 18340754967678044053
23552423 10 18334573594124926006
241688 4 17619355299082626954
2748010 2 18337678644942147022
29004967 10 18336268925106508091
5084963 1 18273211958928438721
53812653 166 18128252492051936224

>  <PUBCHEM_SHAPE_MULTIPOLES>
189.96
4.06
1.64
0.59
1.96
0.02
0
0.37
0
-0.95
0
-0.01
0.03
0

>  <PUBCHEM_SHAPE_SELFOVERLAP>
395.439

>  <PUBCHEM_SHAPE_VOLUME>
108.2

>  <PUBCHEM_COORDINATE_TYPE>
2
5
10

$$$$
