78970929
 OpenBabel01182520543D

 32 32  0  0  0  0  0  0  0  0999 V2000
   -4.5854    1.3383    0.0031 O   0  0  0  0  0  0  0  0  0  0  0  0
    1.4685   -0.4824   -0.0232 N   0  0  0  0  0  0  0  0  0  0  0  0
   -0.6929   -1.4172   -0.0131 N   0  0  0  0  0  0  0  0  0  0  0  0
   -4.8325   -0.9414    0.0135 N   0  0  0  0  0  0  0  0  0  0  0  0
    3.8737    0.1299    0.0166 C   0  0  0  0  0  0  0  0  0  0  0  0
    2.4073    0.6162   -0.0253 C   0  0  0  0  0  0  0  0  0  0  0  0
    4.1233   -0.7586    1.2476 C   0  0  0  0  0  0  0  0  0  0  0  0
    4.8474    1.3209    0.0408 C   0  0  0  0  0  0  0  0  0  0  0  0
    4.1452   -0.7007   -1.2517 C   0  0  0  0  0  0  0  0  0  0  0  0
    0.0935   -0.3174   -0.0143 C   0  0  0  0  0  0  0  0  0  0  0  0
   -0.3895    0.9813   -0.0072 C   0  0  0  0  0  0  0  0  0  0  0  0
   -1.7680    1.1630    0.0018 C   0  0  0  0  0  0  0  0  0  0  0  0
   -2.6097    0.0562    0.0033 C   0  0  0  0  0  0  0  0  0  0  0  0
   -2.0275   -1.2011   -0.0044 C   0  0  0  0  0  0  0  0  0  0  0  0
   -4.0534    0.2131    0.0125 C   0  0  0  0  0  0  0  0  0  0  0  0
    2.2631    1.2334   -0.9217 H   0  0  0  0  0  0  0  0  0  0  0  0
    2.2374    1.2525    0.8531 H   0  0  0  0  0  0  0  0  0  0  0  0
    3.5333   -1.6804    1.2278 H   0  0  0  0  0  0  0  0  0  0  0  0
    5.1771   -1.0547    1.3082 H   0  0  0  0  0  0  0  0  0  0  0  0
    3.8779   -0.2229    2.1715 H   0  0  0  0  0  0  0  0  0  0  0  0
    4.7074    1.9625   -0.8364 H   0  0  0  0  0  0  0  0  0  0  0  0
    4.6897    1.9368    0.9331 H   0  0  0  0  0  0  0  0  0  0  0  0
    5.8902    0.9847    0.0464 H   0  0  0  0  0  0  0  0  0  0  0  0
    3.5459   -1.6160   -1.2924 H   0  0  0  0  0  0  0  0  0  0  0  0
    5.1969   -1.0074   -1.2977 H   0  0  0  0  0  0  0  0  0  0  0  0
    3.9340   -0.1207   -2.1574 H   0  0  0  0  0  0  0  0  0  0  0  0
    1.7995   -1.4394   -0.0326 H   0  0  0  0  0  0  0  0  0  0  0  0
    0.2354    1.8665   -0.0101 H   0  0  0  0  0  0  0  0  0  0  0  0
   -2.1649    2.1746    0.0072 H   0  0  0  0  0  0  0  0  0  0  0  0
   -2.5864   -2.1283   -0.0044 H   0  0  0  0  0  0  0  0  0  0  0  0
   -4.4793   -1.8899    0.0164 H   0  0  0  0  0  0  0  0  0  0  0  0
   -5.8445   -0.8605    0.0132 H   0  0  0  0  0  0  0  0  0  0  0  0
  1 15  2  0  0  0  0
  2  6  1  0  0  0  0
  2 10  1  0  0  0  0
  2 27  1  0  0  0  0
  3 10  2  0  0  0  0
  3 14  1  0  0  0  0
  4 15  1  0  0  0  0
  4 31  1  0  0  0  0
  4 32  1  0  0  0  0
  5  6  1  0  0  0  0
  5  7  1  0  0  0  0
  5  8  1  0  0  0  0
  5  9  1  0  0  0  0
  6 16  1  0  0  0  0
  6 17  1  0  0  0  0
  7 18  1  0  0  0  0
  7 19  1  0  0  0  0
  7 20  1  0  0  0  0
  8 21  1  0  0  0  0
  8 22  1  0  0  0  0
  8 23  1  0  0  0  0
  9 24  1  0  0  0  0
  9 25  1  0  0  0  0
  9 26  1  0  0  0  0
 10 11  1  0  0  0  0
 11 12  2  0  0  0  0
 11 28  1  0  0  0  0
 12 13  1  0  0  0  0
 12 29  1  0  0  0  0
 13 14  2  0  0  0  0
 13 15  1  0  0  0  0
 14 30  1  0  0  0  0
M  END
>  <PUBCHEM_COMPOUND_CID>
78970929

>  <PUBCHEM_CONFORMER_RMSD>
0.6

>  <PUBCHEM_CONFORMER_DIVERSEORDER>
2
15
18
13
1
12
14
3
11
8
4
17
19
10
7
9
20
5
16
6

>  <PUBCHEM_MMFF94_PARTIAL_CHARGES>
17
1 -0.57
10 0.41
11 -0.15
12 -0.15
13 0.09
14 0.16
15 0.54
2 -0.87
27 0.4
28 0.15
29 0.15
3 -0.62
30 0.15
31 0.37
32 0.37
4 -0.8
6 0.37

>  <PUBCHEM_EFFECTIVE_ROTOR_COUNT>
4

>  <PUBCHEM_PHARMACOPHORE_FEATURES>
6
1 1 acceptor
1 2 donor
1 4 donor
3 2 3 10 cation
4 5 7 8 9 hydrophobe
6 3 10 11 12 13 14 rings

>  <PUBCHEM_HEAVY_ATOM_COUNT>
15

>  <PUBCHEM_ATOM_DEF_STEREO_COUNT>
0

>  <PUBCHEM_ATOM_UDEF_STEREO_COUNT>
0

>  <PUBCHEM_BOND_DEF_STEREO_COUNT>
0

>  <PUBCHEM_BOND_UDEF_STEREO_COUNT>
0

>  <PUBCHEM_ISOTOPIC_ATOM_COUNT>
0

>  <PUBCHEM_COMPONENT_COUNT>
1

>  <PUBCHEM_CACTVS_TAUTO_COUNT>
7

>  <PUBCHEM_CONFORMER_ID>
04B5003100000002

>  <PUBCHEM_MMFF94_ENERGY>
50.4789

>  <PUBCHEM_FEATURE_SELFOVERLAP>
30.446

>  <PUBCHEM_SHAPE_FINGERPRINT>
11132069 177 18344143691661423541
11401426 45 18412259536988606229
12236239 1 17894911824113334338
12916748 109 18411423911950611145
13533116 47 15841281358715026646
13675066 3 18410577309471962515
13690532 89 18333730217076942065
13862211 1 18410287034645767755
14123238 8 18334857237938645956
15196674 1 18410856555350103520
15375358 24 18273216395645577270
17834072 33 17917427678523643916
18186145 218 18113896074581272886
200 152 16917350324739171847
20279233 1 17989211456107655430
20281389 69 17894909573767483421
20510252 161 18272653406979746488
20645477 56 18341893026004077452
20645477 70 17560810892450983886
23402539 116 18343575240160961941
23559900 14 18272656736275310798
265663 24 17822007601394613075
300161 21 18410848889376981012
3545911 37 18412829114366832500
366044 4 18410855464771620051
42 15 17967529047878829026
42788 4 18411138043285666532
474 4 17242180261079304468
4990 188 18130793334532243230
5104073 3 18408603664741430536
522135 26 17458345221993831498
5374978 207 18409724067543833792
69090 78 18202843261969249238
90127 26 18334870410851464192

>  <PUBCHEM_SHAPE_MULTIPOLES>
287.88
10.85
1.36
0.82
0.62
0.07
0
0.95
0.08
-0.22
0.01
0.94
-0.16
0

>  <PUBCHEM_SHAPE_SELFOVERLAP>
586.883

>  <PUBCHEM_SHAPE_VOLUME>
167.8

>  <PUBCHEM_COORDINATE_TYPE>
2
5
10

$$$$
