79033942
 OpenBabel01182520543D

 26 26  0  0  0  0  0  0  0  0999 V2000
    5.6641   -0.4440    0.0621 F   0  0  0  0  0  0  0  0  0  0  0  0
    4.4929    0.9925   -1.0860 F   0  0  0  0  0  0  0  0  0  0  0  0
    4.4428    1.0461    1.0911 F   0  0  0  0  0  0  0  0  0  0  0  0
   -4.8664    1.6428   -0.0059 O   0  0  0  0  0  0  0  0  0  0  0  0
    0.8828   -0.9890   -0.0349 N   0  0  0  0  0  0  0  0  0  0  0  0
   -1.3871   -1.6189    0.0025 N   0  0  0  0  0  0  0  0  0  0  0  0
   -5.4226   -0.5814    0.0435 N   0  0  0  0  0  0  0  0  0  0  0  0
    1.9624   -0.0319   -0.0603 C   0  0  0  0  0  0  0  0  0  0  0  0
    3.3147   -0.7355   -0.0017 C   0  0  0  0  0  0  0  0  0  0  0  0
   -0.4580   -0.6372   -0.0212 C   0  0  0  0  0  0  0  0  0  0  0  0
    4.4900    0.2213    0.0246 C   0  0  0  0  0  0  0  0  0  0  0  0
   -0.7589    0.7153   -0.0330 C   0  0  0  0  0  0  0  0  0  0  0  0
   -3.0844    0.1027    0.0047 C   0  0  0  0  0  0  0  0  0  0  0  0
   -2.0996    1.0840   -0.0195 C   0  0  0  0  0  0  0  0  0  0  0  0
   -2.6796   -1.2223    0.0148 C   0  0  0  0  0  0  0  0  0  0  0  0
   -4.4931    0.4556    0.0193 C   0  0  0  0  0  0  0  0  0  0  0  0
    1.9160    0.5688   -0.9767 H   0  0  0  0  0  0  0  0  0  0  0  0
    1.8914    0.6423    0.8020 H   0  0  0  0  0  0  0  0  0  0  0  0
    3.3587   -1.3726    0.8903 H   0  0  0  0  0  0  0  0  0  0  0  0
    3.4177   -1.4045   -0.8648 H   0  0  0  0  0  0  0  0  0  0  0  0
    1.0945   -1.9803   -0.0297 H   0  0  0  0  0  0  0  0  0  0  0  0
   -0.0182    1.5059   -0.0550 H   0  0  0  0  0  0  0  0  0  0  0  0
   -2.3545    2.1403   -0.0289 H   0  0  0  0  0  0  0  0  0  0  0  0
   -3.3598   -2.0643    0.0332 H   0  0  0  0  0  0  0  0  0  0  0  0
   -5.2022   -1.5691    0.0600 H   0  0  0  0  0  0  0  0  0  0  0  0
   -6.4140   -0.3629    0.0472 H   0  0  0  0  0  0  0  0  0  0  0  0
  1 11  1  0  0  0  0
  2 11  1  0  0  0  0
  3 11  1  0  0  0  0
  4 16  2  0  0  0  0
  5  8  1  0  0  0  0
  5 10  1  0  0  0  0
  5 21  1  0  0  0  0
  6 10  2  0  0  0  0
  6 15  1  0  0  0  0
  7 16  1  0  0  0  0
  7 25  1  0  0  0  0
  7 26  1  0  0  0  0
  8  9  1  0  0  0  0
  8 17  1  0  0  0  0
  8 18  1  0  0  0  0
  9 11  1  0  0  0  0
  9 19  1  0  0  0  0
  9 20  1  0  0  0  0
 10 12  1  0  0  0  0
 12 14  2  0  0  0  0
 12 22  1  0  0  0  0
 13 14  1  0  0  0  0
 13 15  2  0  0  0  0
 13 16  1  0  0  0  0
 14 23  1  0  0  0  0
 15 24  1  0  0  0  0
M  END
>  <PUBCHEM_COMPOUND_CID>
79033942

>  <PUBCHEM_CONFORMER_RMSD>
0.6

>  <PUBCHEM_CONFORMER_DIVERSEORDER>
1
27
38
35
6
34
11
26
33
36
12
29
10
25
30
16
23
7
20
28
18
5
22
2
19
9
21
37
8
24
4
3
17
31
32
15
14
13

>  <PUBCHEM_MMFF94_PARTIAL_CHARGES>
21
1 -0.34
10 0.41
11 1.02
12 -0.15
13 0.09
14 -0.15
15 0.16
16 0.54
2 -0.34
21 0.4
22 0.15
23 0.15
24 0.15
25 0.37
26 0.37
3 -0.34
4 -0.57
5 -0.87
6 -0.62
7 -0.8
8 0.37

>  <PUBCHEM_EFFECTIVE_ROTOR_COUNT>
5

>  <PUBCHEM_PHARMACOPHORE_FEATURES>
5
1 4 acceptor
1 5 donor
1 7 donor
3 5 6 10 cation
6 6 10 12 13 14 15 rings

>  <PUBCHEM_HEAVY_ATOM_COUNT>
16

>  <PUBCHEM_ATOM_DEF_STEREO_COUNT>
0

>  <PUBCHEM_ATOM_UDEF_STEREO_COUNT>
0

>  <PUBCHEM_BOND_DEF_STEREO_COUNT>
0

>  <PUBCHEM_BOND_UDEF_STEREO_COUNT>
0

>  <PUBCHEM_ISOTOPIC_ATOM_COUNT>
0

>  <PUBCHEM_COMPONENT_COUNT>
1

>  <PUBCHEM_CACTVS_TAUTO_COUNT>
7

>  <PUBCHEM_CONFORMER_ID>
04B5F65600000001

>  <PUBCHEM_MMFF94_ENERGY>
43.5621

>  <PUBCHEM_FEATURE_SELFOVERLAP>
25.372

>  <PUBCHEM_SHAPE_FINGERPRINT>
10014705 185 18412822503889736085
11287383 113 17203607120373831094
11401426 45 18409446977691626999
12236239 1 17894912923377087690
12390115 104 17986687978222532249
13081056 2 18272087197562592744
13214271 11 18411699894260405151
13533116 47 15936680489736785560
13897977 58 18335423465184287685
14123238 8 18113618988728783727
14251764 18 18333445435941031170
15048467 5 18271527494937016593
15242439 84 18131354111712117470
17834072 33 17917706924533588791
17834076 25 18410011035203389102
200 152 14476962276710713755
20279233 1 17775011189021600182
20645477 56 18411700980338407287
20645477 70 17274832294511669862
212847 35 18410293614799188512
23402539 116 18342733014290885405
23559900 14 18341897359979825478
293599 30 18341050714593636977
3545911 37 18410857651047000382
366044 4 18410855456239824675
42788 4 18410856555344828775
5104073 3 18337111159788202515
5374978 207 18410568479567821986
542803 24 17458067066715526436

>  <PUBCHEM_SHAPE_MULTIPOLES>
286.64
12.38
1.34
0.68
6.72
0.01
0
-2.53
-0.21
-0.76
0
0.46
-0.11
0.02

>  <PUBCHEM_SHAPE_SELFOVERLAP>
593.857

>  <PUBCHEM_SHAPE_VOLUME>
164.3

>  <PUBCHEM_COORDINATE_TYPE>
2
5
10

$$$$
