79034156
 OpenBabel01182520543D

 32 32  0  0  0  0  0  0  0  0999 V2000
    4.9928    1.5990   -0.3800 F   0  0  0  0  0  0  0  0  0  0  0  0
    5.0976    0.3856    1.4262 F   0  0  0  0  0  0  0  0  0  0  0  0
    6.2934   -0.1497   -0.3216 F   0  0  0  0  0  0  0  0  0  0  0  0
   -4.3193   -0.6507    1.5712 O   0  0  0  0  0  0  0  0  0  0  0  0
    1.5397   -0.8744   -0.5326 N   0  0  0  0  0  0  0  0  0  0  0  0
   -4.6363    0.6736   -0.3288 N   0  0  0  0  0  0  0  0  0  0  0  0
   -0.6980   -1.5687   -0.7798 N   0  0  0  0  0  0  0  0  0  0  0  0
    2.5802   -0.0042   -0.0406 C   0  0  0  0  0  0  0  0  0  0  0  0
    3.9572   -0.5158   -0.4522 C   0  0  0  0  0  0  0  0  0  0  0  0
    0.1919   -0.6899   -0.2664 C   0  0  0  0  0  0  0  0  0  0  0  0
   -2.4503   -0.2871    0.2839 C   0  0  0  0  0  0  0  0  0  0  0  0
    5.0970    0.3312    0.0782 C   0  0  0  0  0  0  0  0  0  0  0  0
   -0.1566    0.3973    0.5187 C   0  0  0  0  0  0  0  0  0  0  0  0
   -1.5050    0.5955    0.7945 C   0  0  0  0  0  0  0  0  0  0  0  0
   -3.8659   -0.1071    0.5541 C   0  0  0  0  0  0  0  0  0  0  0  0
   -1.9994   -1.3437   -0.4906 C   0  0  0  0  0  0  0  0  0  0  0  0
   -6.0571    0.9113   -0.1155 C   0  0  0  0  0  0  0  0  0  0  0  0
   -4.0620    1.2979   -1.5187 C   0  0  0  0  0  0  0  0  0  0  0  0
    2.4468    1.0095   -0.4373 H   0  0  0  0  0  0  0  0  0  0  0  0
    2.5478    0.0435    1.0548 H   0  0  0  0  0  0  0  0  0  0  0  0
    4.0878   -1.5452   -0.0963 H   0  0  0  0  0  0  0  0  0  0  0  0
    4.0213   -0.5564   -1.5464 H   0  0  0  0  0  0  0  0  0  0  0  0
    1.7861   -1.6700   -1.1105 H   0  0  0  0  0  0  0  0  0  0  0  0
    0.5521    1.1064    0.9301 H   0  0  0  0  0  0  0  0  0  0  0  0
   -1.8092    1.4404    1.4067 H   0  0  0  0  0  0  0  0  0  0  0  0
   -2.6895   -2.0655   -0.9170 H   0  0  0  0  0  0  0  0  0  0  0  0
   -6.2255    1.9877   -0.0204 H   0  0  0  0  0  0  0  0  0  0  0  0
   -6.4067    0.4128    0.7920 H   0  0  0  0  0  0  0  0  0  0  0  0
   -6.6135    0.5243   -0.9738 H   0  0  0  0  0  0  0  0  0  0  0  0
   -4.6004    0.9268   -2.3963 H   0  0  0  0  0  0  0  0  0  0  0  0
   -2.9997    1.0994   -1.6575 H   0  0  0  0  0  0  0  0  0  0  0  0
   -4.2047    2.3802   -1.4425 H   0  0  0  0  0  0  0  0  0  0  0  0
  1 12  1  0  0  0  0
  2 12  1  0  0  0  0
  3 12  1  0  0  0  0
  4 15  2  0  0  0  0
  5  8  1  0  0  0  0
  5 10  1  0  0  0  0
  5 23  1  0  0  0  0
  6 15  1  0  0  0  0
  6 17  1  0  0  0  0
  6 18  1  0  0  0  0
  7 10  2  0  0  0  0
  7 16  1  0  0  0  0
  8  9  1  0  0  0  0
  8 19  1  0  0  0  0
  8 20  1  0  0  0  0
  9 12  1  0  0  0  0
  9 21  1  0  0  0  0
  9 22  1  0  0  0  0
 10 13  1  0  0  0  0
 11 14  1  0  0  0  0
 11 15  1  0  0  0  0
 11 16  2  0  0  0  0
 13 14  2  0  0  0  0
 13 24  1  0  0  0  0
 14 25  1  0  0  0  0
 16 26  1  0  0  0  0
 17 27  1  0  0  0  0
 17 28  1  0  0  0  0
 17 29  1  0  0  0  0
 18 30  1  0  0  0  0
 18 31  1  0  0  0  0
 18 32  1  0  0  0  0
M  END
>  <PUBCHEM_COMPOUND_CID>
79034156

>  <PUBCHEM_CONFORMER_RMSD>
0.8

>  <PUBCHEM_CONFORMER_DIVERSEORDER>
2
45
27
22
41
38
33
49
16
19
44
48
13
35
26
23
21
25
31
24
34
36
37
39
40
18
12
28
15
30
6
5
14
32
42
20
3
47
4
10
46
1
11
29
17
43
8
9
7

>  <PUBCHEM_MMFF94_PARTIAL_CHARGES>
21
1 -0.34
10 0.41
11 0.09
12 1.02
13 -0.15
14 -0.15
15 0.54
16 0.16
17 0.3
18 0.3
2 -0.34
23 0.4
24 0.15
25 0.15
26 0.15
3 -0.34
4 -0.57
5 -0.87
6 -0.66
7 -0.62
8 0.37

>  <PUBCHEM_EFFECTIVE_ROTOR_COUNT>
6

>  <PUBCHEM_PHARMACOPHORE_FEATURES>
4
1 4 acceptor
1 5 donor
3 5 7 10 cation
6 7 10 11 13 14 16 rings

>  <PUBCHEM_HEAVY_ATOM_COUNT>
18

>  <PUBCHEM_ATOM_DEF_STEREO_COUNT>
0

>  <PUBCHEM_ATOM_UDEF_STEREO_COUNT>
0

>  <PUBCHEM_BOND_DEF_STEREO_COUNT>
0

>  <PUBCHEM_BOND_UDEF_STEREO_COUNT>
0

>  <PUBCHEM_ISOTOPIC_ATOM_COUNT>
0

>  <PUBCHEM_COMPONENT_COUNT>
1

>  <PUBCHEM_CACTVS_TAUTO_COUNT>
4

>  <PUBCHEM_CONFORMER_ID>
04B5F72C00000002

>  <PUBCHEM_MMFF94_ENERGY>
52.4205

>  <PUBCHEM_FEATURE_SELFOVERLAP>
20.297

>  <PUBCHEM_SHAPE_FINGERPRINT>
10014705 185 18342173396862956847
11089746 13 16702299058045971738
11128504 68 16128650860327685808
11401426 45 18202845452629163391
117890 112 18040997315034682021
12236239 1 18187366545413966826
12507557 5 18261118482480638057
12596602 18 17458348571820708256
12969540 114 18131056122169435749
13288520 33 12751233706135969997
13403585 85 17530683212470876565
13533116 47 18200873959946823206
13675066 3 18187089455155948702
13740256 8 8790589417177309933
1420 363 8646768906549078756
14251718 22 12679458694785905502
14251764 18 14634880759394264799
14528608 73 15985099730385876408
14911166 2 17704068495494853411
15048467 5 18409448064255302717
15209294 21 15936687073826548421
17834072 33 14333121992358903224
17834076 25 17918274246658131309
1813 80 11963674357029344122
187816 3 17132114632737485971
19489759 90 17530685407399286705
200 152 14908180854246463766
20281389 69 18113897152365233428
20300324 65 15410898448644529587
20645477 56 18409729564542822950
20645477 70 18130230337540442926
20767249 213 18408322185680663925
220451 1 15863792798668725090
2297311 6 12829484810392230722
23035841 295 13254794642578547245
23402539 116 16950282927554070719
23402655 69 16988281967784408233
23559900 14 17918278662723548182
2767999 5 18131066030653809968
300161 21 18273490191806337834
3545911 37 18272092695173531206
465052 167 7925625622491448528
542803 24 17167864175446499918
59755656 215 18342183211744514974

>  <PUBCHEM_SHAPE_MULTIPOLES>
327.8
14.28
1.24
1.09
11.18
0.02
-0.1
-4.93
-0.28
-0.37
0.31
-0.66
-0.07
0.75

>  <PUBCHEM_SHAPE_SELFOVERLAP>
670.813

>  <PUBCHEM_SHAPE_VOLUME>
191.1

>  <PUBCHEM_COORDINATE_TYPE>
2
5
10

$$$$
