79040050
 OpenBabel01182520543D

 29 29  0  0  0  0  0  0  0  0999 V2000
    4.5070    0.8162    1.2442 F   0  0  0  0  0  0  0  0  0  0  0  0
    4.8361   -0.9694    0.0368 F   0  0  0  0  0  0  0  0  0  0  0  0
    4.1344    0.8733   -0.9035 F   0  0  0  0  0  0  0  0  0  0  0  0
   -1.3159    2.4890    0.9243 O   0  0  0  0  0  0  0  0  0  0  0  0
   -0.2689   -0.4865   -0.3086 N   0  0  0  0  0  0  0  0  0  0  0  0
   -2.1576   -1.8337    0.0240 N   0  0  0  0  0  0  0  0  0  0  0  0
   -1.7147    2.4747   -1.3337 N   0  0  0  0  0  0  0  0  0  0  0  0
    2.0466   -1.1665   -0.6958 C   0  0  0  0  0  0  0  0  0  0  0  0
    0.6105   -1.6217   -0.4510 C   0  0  0  0  0  0  0  0  0  0  0  0
    2.5988   -0.3148    0.4502 C   0  0  0  0  0  0  0  0  0  0  0  0
    4.0320    0.1024    0.1997 C   0  0  0  0  0  0  0  0  0  0  0  0
   -1.6309   -0.5924   -0.0736 C   0  0  0  0  0  0  0  0  0  0  0  0
   -2.3685    0.5746    0.0442 C   0  0  0  0  0  0  0  0  0  0  0  0
   -3.7346    0.4605    0.2772 C   0  0  0  0  0  0  0  0  0  0  0  0
   -4.3131   -0.7994    0.3838 C   0  0  0  0  0  0  0  0  0  0  0  0
   -1.7726    1.8988   -0.0690 C   0  0  0  0  0  0  0  0  0  0  0  0
   -3.4886   -1.9050    0.2508 C   0  0  0  0  0  0  0  0  0  0  0  0
    2.6779   -2.0526   -0.8327 H   0  0  0  0  0  0  0  0  0  0  0  0
    2.0944   -0.5927   -1.6300 H   0  0  0  0  0  0  0  0  0  0  0  0
    0.2870   -2.2419   -1.2952 H   0  0  0  0  0  0  0  0  0  0  0  0
    0.5747   -2.2418    0.4528 H   0  0  0  0  0  0  0  0  0  0  0  0
    1.9932    0.5874    0.5887 H   0  0  0  0  0  0  0  0  0  0  0  0
    2.5499   -0.8833    1.3860 H   0  0  0  0  0  0  0  0  0  0  0  0
    0.0511    0.3840   -0.7209 H   0  0  0  0  0  0  0  0  0  0  0  0
   -4.3583    1.3449    0.3773 H   0  0  0  0  0  0  0  0  0  0  0  0
   -5.3757   -0.9126    0.5651 H   0  0  0  0  0  0  0  0  0  0  0  0
   -3.8907   -2.9100    0.3256 H   0  0  0  0  0  0  0  0  0  0  0  0
   -2.0753    2.0039   -2.1575 H   0  0  0  0  0  0  0  0  0  0  0  0
   -1.3042    3.3923   -1.4710 H   0  0  0  0  0  0  0  0  0  0  0  0
  1 11  1  0  0  0  0
  2 11  1  0  0  0  0
  3 11  1  0  0  0  0
  4 16  2  0  0  0  0
  5  9  1  0  0  0  0
  5 12  1  0  0  0  0
  5 24  1  0  0  0  0
  6 12  1  0  0  0  0
  6 17  2  0  0  0  0
  7 16  1  0  0  0  0
  7 28  1  0  0  0  0
  7 29  1  0  0  0  0
  8  9  1  0  0  0  0
  8 10  1  0  0  0  0
  8 18  1  0  0  0  0
  8 19  1  0  0  0  0
  9 20  1  0  0  0  0
  9 21  1  0  0  0  0
 10 11  1  0  0  0  0
 10 22  1  0  0  0  0
 10 23  1  0  0  0  0
 12 13  2  0  0  0  0
 13 14  1  0  0  0  0
 13 16  1  0  0  0  0
 14 15  2  0  0  0  0
 14 25  1  0  0  0  0
 15 17  1  0  0  0  0
 15 26  1  0  0  0  0
 17 27  1  0  0  0  0
M  END
>  <PUBCHEM_COMPOUND_CID>
79040050

>  <PUBCHEM_CONFORMER_RMSD>
0.8

>  <PUBCHEM_CONFORMER_DIVERSEORDER>
2
24
39
30
11
37
35
12
1
34
8
28
18
33
6
26
23
38
31
17
4
10
36
9
14
27
20
7
5
13
22
3
32
16
29
15
19
21
25

>  <PUBCHEM_MMFF94_PARTIAL_CHARGES>
21
1 -0.34
11 1.02
12 0.41
13 0.09
14 -0.15
15 -0.15
16 0.54
17 0.16
2 -0.34
24 0.4
25 0.15
26 0.15
27 0.15
28 0.37
29 0.37
3 -0.34
4 -0.57
5 -0.87
6 -0.62
7 -0.8
9 0.37

>  <PUBCHEM_EFFECTIVE_ROTOR_COUNT>
6

>  <PUBCHEM_PHARMACOPHORE_FEATURES>
6
1 4 acceptor
1 5 cation
1 5 donor
1 6 acceptor
1 7 donor
6 6 12 13 14 15 17 rings

>  <PUBCHEM_HEAVY_ATOM_COUNT>
17

>  <PUBCHEM_ATOM_DEF_STEREO_COUNT>
0

>  <PUBCHEM_ATOM_UDEF_STEREO_COUNT>
0

>  <PUBCHEM_BOND_DEF_STEREO_COUNT>
0

>  <PUBCHEM_BOND_UDEF_STEREO_COUNT>
0

>  <PUBCHEM_ISOTOPIC_ATOM_COUNT>
0

>  <PUBCHEM_COMPONENT_COUNT>
1

>  <PUBCHEM_CACTVS_TAUTO_COUNT>
7

>  <PUBCHEM_CONFORMER_ID>
04B60E3200000002

>  <PUBCHEM_MMFF94_ENERGY>
48.0257

>  <PUBCHEM_FEATURE_SELFOVERLAP>
30.446

>  <PUBCHEM_SHAPE_FINGERPRINT>
10608611 8 18270401564305837918
11132069 177 18411986862194182695
12107183 9 17539679210893807178
12596602 18 17677037041176553128
13081056 2 18201720652487247050
13214271 11 18343301479219977295
13296909 8 18186799145415387541
13897977 58 18409455803343076580
14341114 176 18408327666322956962
15163728 17 13684917991033074753
17802600 8 18411978066117030184
18186145 218 16917065581915074918
18769570 83 16733254652722364397
200 152 14562529596115860475
20510252 161 18340771438360457811
21652331 79 18411699919776845232
22182937 141 17986399879783739593
2297311 6 18341628017837170846
23402539 116 18410849988867873855
23557571 272 18341908380285366255
23559900 14 18268712706024749902
4214541 1 18337673001724430574
5104073 3 18340492162196396531
81228 2 18191892057990881283
9882013 296 18260268546896066166
9925002 15 17411892173616165519

>  <PUBCHEM_SHAPE_MULTIPOLES>
307.22
9.24
2.32
0.89
9.61
1.05
-0.04
-0.91
1.53
-1.8
-0.22
0.3
0.34
0.49

>  <PUBCHEM_SHAPE_SELFOVERLAP>
632.224

>  <PUBCHEM_SHAPE_VOLUME>
176.7

>  <PUBCHEM_COORDINATE_TYPE>
2
5
10

$$$$
