79040504
 OpenBabel01182520543D

 29 29  0  0  0  0  0  0  0  0999 V2000
    6.1924   -1.0953   -0.0506 F   0  0  0  0  0  0  0  0  0  0  0  0
    5.4043    0.6566   -1.0823 F   0  0  0  0  0  0  0  0  0  0  0  0
    5.4562    0.6038    1.1010 F   0  0  0  0  0  0  0  0  0  0  0  0
   -5.5759   -1.4919    0.0066 O   0  0  0  0  0  0  0  0  0  0  0  0
    0.3484    0.7180    0.0068 N   0  0  0  0  0  0  0  0  0  0  0  0
   -1.8703    1.5103    0.0023 N   0  0  0  0  0  0  0  0  0  0  0  0
   -5.9703    0.7670   -0.0082 N   0  0  0  0  0  0  0  0  0  0  0  0
    2.7556    0.2948    0.0178 C   0  0  0  0  0  0  0  0  0  0  0  0
    1.3563   -0.3147    0.0081 C   0  0  0  0  0  0  0  0  0  0  0  0
    3.8604   -0.7647    0.0136 C   0  0  0  0  0  0  0  0  0  0  0  0
    5.2385   -0.1391   -0.0047 C   0  0  0  0  0  0  0  0  0  0  0  0
   -1.0143    0.4638    0.0033 C   0  0  0  0  0  0  0  0  0  0  0  0
   -1.4119   -0.8634    0.0009 C   0  0  0  0  0  0  0  0  0  0  0  0
   -2.7759   -1.1343   -0.0027 C   0  0  0  0  0  0  0  0  0  0  0  0
   -3.6875   -0.0843   -0.0037 C   0  0  0  0  0  0  0  0  0  0  0  0
   -3.1881    1.2081   -0.0011 C   0  0  0  0  0  0  0  0  0  0  0  0
   -5.1181   -0.3346   -0.0073 C   0  0  0  0  0  0  0  0  0  0  0  0
    2.8715    0.9480   -0.8566 H   0  0  0  0  0  0  0  0  0  0  0  0
    2.8678    0.9366    0.9010 H   0  0  0  0  0  0  0  0  0  0  0  0
    1.2570   -0.9434   -0.8852 H   0  0  0  0  0  0  0  0  0  0  0  0
    1.2491   -0.9501    0.8958 H   0  0  0  0  0  0  0  0  0  0  0  0
    3.7647   -1.4041    0.8985 H   0  0  0  0  0  0  0  0  0  0  0  0
    3.7481   -1.4094   -0.8656 H   0  0  0  0  0  0  0  0  0  0  0  0
    0.6309    1.6915    0.0084 H   0  0  0  0  0  0  0  0  0  0  0  0
   -0.7299   -1.7055    0.0013 H   0  0  0  0  0  0  0  0  0  0  0  0
   -3.1063   -2.1695   -0.0049 H   0  0  0  0  0  0  0  0  0  0  0  0
   -3.8059    2.0971   -0.0011 H   0  0  0  0  0  0  0  0  0  0  0  0
   -5.6793    1.7363   -0.0145 H   0  0  0  0  0  0  0  0  0  0  0  0
   -6.9750    0.6207   -0.0039 H   0  0  0  0  0  0  0  0  0  0  0  0
  1 11  1  0  0  0  0
  2 11  1  0  0  0  0
  3 11  1  0  0  0  0
  4 17  2  0  0  0  0
  5  9  1  0  0  0  0
  5 12  1  0  0  0  0
  5 24  1  0  0  0  0
  6 12  2  0  0  0  0
  6 16  1  0  0  0  0
  7 17  1  0  0  0  0
  7 28  1  0  0  0  0
  7 29  1  0  0  0  0
  8  9  1  0  0  0  0
  8 10  1  0  0  0  0
  8 18  1  0  0  0  0
  8 19  1  0  0  0  0
  9 20  1  0  0  0  0
  9 21  1  0  0  0  0
 10 11  1  0  0  0  0
 10 22  1  0  0  0  0
 10 23  1  0  0  0  0
 12 13  1  0  0  0  0
 13 14  2  0  0  0  0
 13 25  1  0  0  0  0
 14 15  1  0  0  0  0
 14 26  1  0  0  0  0
 15 16  2  0  0  0  0
 15 17  1  0  0  0  0
 16 27  1  0  0  0  0
M  END
>  <PUBCHEM_COMPOUND_CID>
79040504

>  <PUBCHEM_CONFORMER_RMSD>
0.8

>  <PUBCHEM_CONFORMER_DIVERSEORDER>
1
45
7
29
48
17
33
47
8
26
2
34
39
11
16
10
4
12
22
46
13
49
3
42
50
15
43
9
38
5
41
14
35
30
40
20
23
27
28
6
44
19
25
37
18
24
31
32
36
21
51

>  <PUBCHEM_MMFF94_PARTIAL_CHARGES>
21
1 -0.34
11 1.02
12 0.41
13 -0.15
14 -0.15
15 0.09
16 0.16
17 0.54
2 -0.34
24 0.4
25 0.15
26 0.15
27 0.15
28 0.37
29 0.37
3 -0.34
4 -0.57
5 -0.87
6 -0.62
7 -0.8
9 0.37

>  <PUBCHEM_EFFECTIVE_ROTOR_COUNT>
6

>  <PUBCHEM_PHARMACOPHORE_FEATURES>
5
1 4 acceptor
1 5 donor
1 7 donor
3 5 6 12 cation
6 6 12 13 14 15 16 rings

>  <PUBCHEM_HEAVY_ATOM_COUNT>
17

>  <PUBCHEM_ATOM_DEF_STEREO_COUNT>
0

>  <PUBCHEM_ATOM_UDEF_STEREO_COUNT>
0

>  <PUBCHEM_BOND_DEF_STEREO_COUNT>
0

>  <PUBCHEM_BOND_UDEF_STEREO_COUNT>
0

>  <PUBCHEM_ISOTOPIC_ATOM_COUNT>
0

>  <PUBCHEM_COMPONENT_COUNT>
1

>  <PUBCHEM_CACTVS_TAUTO_COUNT>
7

>  <PUBCHEM_CONFORMER_ID>
04B60FF800000001

>  <PUBCHEM_MMFF94_ENERGY>
43.2524

>  <PUBCHEM_FEATURE_SELFOVERLAP>
25.372

>  <PUBCHEM_SHAPE_FINGERPRINT>
10968037 39 18334296482898129279
11287383 113 18130786780717955120
11315181 36 18343305868154294985
11524674 6 16559031601592887815
12091667 2 17458064855018417389
12107183 9 17541936490769114552
12236239 1 17967252000644076862
12815109 37 18413388739239989735
13288520 33 18412263935130017365
13533116 47 16153697697049590288
13862211 1 18412824720388604391
14123238 8 18408887330283226058
1420 363 18201722855325402510
14251718 22 18333732428937678710
14251731 8 18408038507570392101
14251732 16 18270960253640885840
14251752 14 17458615684352694165
14251764 46 17632858616332103594
17834072 33 18334296495862211020
17834076 25 18410575080378700118
17844677 252 17918279740428166808
187816 3 16370725928699664697
200 152 18060419114460985827
20645477 70 17988366945415756750
21267235 1 18409455790495149803
220451 1 15430038751207979146
2297311 6 18201728335930726964
23035841 295 18335420157801143466
23402539 116 18412258446151211903
23557571 272 18339648845483812572
23559900 14 18340198704292519537
3004659 81 18334296427791859882
34797466 226 17988092183462263204
3545911 37 18411982442878589422
4214541 1 18410856529638679296
42788 4 18410575084689465670
4463277 17 18409730660097171209
542803 24 17458345242946370084
67856867 119 18188777291430623316

>  <PUBCHEM_SHAPE_MULTIPOLES>
307.22
15.77
1.25
0.68
11.46
0.01
0
1.81
0.05
-0.91
0
0.53
-0.06
0.01

>  <PUBCHEM_SHAPE_SELFOVERLAP>
631.867

>  <PUBCHEM_SHAPE_VOLUME>
177

>  <PUBCHEM_COORDINATE_TYPE>
2
5
10

$$$$
