79098959
 OpenBabel01182520543D

 23 23  0  0  0  0  0  0  0  0999 V2000
    3.4573   -0.2400   -1.0699 F   0  0  0  0  0  0  0  0  0  0  0  0
    3.4479   -0.1738    1.1101 F   0  0  0  0  0  0  0  0  0  0  0  0
   -0.7980   -2.4719    1.1213 O   0  0  0  0  0  0  0  0  0  0  0  0
    0.9314    0.2499   -0.0049 N   0  0  0  0  0  0  0  0  0  0  0  0
   -0.7897    1.8803   -0.0256 N   0  0  0  0  0  0  0  0  0  0  0  0
   -0.8002   -2.5151   -1.1714 N   0  0  0  0  0  0  0  0  0  0  0  0
    1.9535    1.2443   -0.0305 C   0  0  0  0  0  0  0  0  0  0  0  0
   -0.4492    0.5721   -0.0038 C   0  0  0  0  0  0  0  0  0  0  0  0
   -1.3649   -0.4675    0.0221 C   0  0  0  0  0  0  0  0  0  0  0  0
    3.3160    0.5862   -0.0045 C   0  0  0  0  0  0  0  0  0  0  0  0
   -2.7172   -0.1437    0.0258 C   0  0  0  0  0  0  0  0  0  0  0  0
   -3.1068    1.1910    0.0037 C   0  0  0  0  0  0  0  0  0  0  0  0
   -0.9671   -1.8683    0.0486 C   0  0  0  0  0  0  0  0  0  0  0  0
   -2.1131    2.1563   -0.0212 C   0  0  0  0  0  0  0  0  0  0  0  0
    1.8652    1.8494   -0.9395 H   0  0  0  0  0  0  0  0  0  0  0  0
    1.8595    1.9013    0.8413 H   0  0  0  0  0  0  0  0  0  0  0  0
    1.1734   -0.6795   -0.3330 H   0  0  0  0  0  0  0  0  0  0  0  0
    4.1243    1.3224   -0.0234 H   0  0  0  0  0  0  0  0  0  0  0  0
   -3.4761   -0.9214    0.0465 H   0  0  0  0  0  0  0  0  0  0  0  0
   -4.1550    1.4669    0.0063 H   0  0  0  0  0  0  0  0  0  0  0  0
   -2.3645    3.2117   -0.0389 H   0  0  0  0  0  0  0  0  0  0  0  0
   -0.9405   -2.0397   -2.0572 H   0  0  0  0  0  0  0  0  0  0  0  0
   -0.5297   -3.4921   -1.2113 H   0  0  0  0  0  0  0  0  0  0  0  0
  1 10  1  0  0  0  0
  2 10  1  0  0  0  0
  3 13  2  0  0  0  0
  4  7  1  0  0  0  0
  4  8  1  0  0  0  0
  4 17  1  0  0  0  0
  5  8  1  0  0  0  0
  5 14  2  0  0  0  0
  6 13  1  0  0  0  0
  6 22  1  0  0  0  0
  6 23  1  0  0  0  0
  7 10  1  0  0  0  0
  7 15  1  0  0  0  0
  7 16  1  0  0  0  0
  8  9  2  0  0  0  0
  9 11  1  0  0  0  0
  9 13  1  0  0  0  0
 10 18  1  0  0  0  0
 11 12  2  0  0  0  0
 11 19  1  0  0  0  0
 12 14  1  0  0  0  0
 12 20  1  0  0  0  0
 14 21  1  0  0  0  0
M  END
>  <PUBCHEM_COMPOUND_CID>
79098959

>  <PUBCHEM_CONFORMER_RMSD>
0.6

>  <PUBCHEM_CONFORMER_DIVERSEORDER>
1
27
30
6
31
25
17
3
29
5
24
18
28
16
11
23
12
4
10
22
20
2
26
9
8
15
7
21
14
19
13

>  <PUBCHEM_MMFF94_PARTIAL_CHARGES>
20
1 -0.34
10 0.68
11 -0.15
12 -0.15
13 0.54
14 0.16
17 0.4
19 0.15
2 -0.34
20 0.15
21 0.15
22 0.37
23 0.37
3 -0.57
4 -0.87
5 -0.62
6 -0.8
7 0.37
8 0.41
9 0.09

>  <PUBCHEM_EFFECTIVE_ROTOR_COUNT>
4

>  <PUBCHEM_PHARMACOPHORE_FEATURES>
6
1 3 acceptor
1 4 cation
1 4 donor
1 5 acceptor
1 6 donor
6 5 8 9 11 12 14 rings

>  <PUBCHEM_HEAVY_ATOM_COUNT>
14

>  <PUBCHEM_ATOM_DEF_STEREO_COUNT>
0

>  <PUBCHEM_ATOM_UDEF_STEREO_COUNT>
0

>  <PUBCHEM_BOND_DEF_STEREO_COUNT>
0

>  <PUBCHEM_BOND_UDEF_STEREO_COUNT>
0

>  <PUBCHEM_ISOTOPIC_ATOM_COUNT>
0

>  <PUBCHEM_COMPONENT_COUNT>
1

>  <PUBCHEM_CACTVS_TAUTO_COUNT>
7

>  <PUBCHEM_CONFORMER_ID>
04B6F44F00000001

>  <PUBCHEM_MMFF94_ENERGY>
44.0663

>  <PUBCHEM_FEATURE_SELFOVERLAP>
30.446

>  <PUBCHEM_SHAPE_FINGERPRINT>
12592029 89 18189621544746075721
12716758 59 18412543240562915096
13380535 76 18411698746987061879
14144814 61 18334856104331329344
15669948 3 18337953505975079548
16945 1 18408042922422336441
18186145 218 18059298638887218176
193761 8 17761775470078849737
20510252 161 18272373061685085697
20524608 308 18272369801698996959
20645476 183 17676784135673311998
20871998 184 18270126849676171007
21524375 3 18338230462625115145
23402539 116 18271513286889445245
23463225 33 18116145563454574632
23552423 10 17827359091975217340
23559900 14 18343865507684923868
257057 1 17550372377611106231
2748010 2 18194409896288935957
43471831 8 18262516983819300851
5706482 22 18339351981649348891
6338986 31 17551497173579550087
69090 78 18201714072275453479
7364860 26 17766276475302919213
81228 2 18193829573250915537
81539 233 18044372726001793381

>  <PUBCHEM_SHAPE_MULTIPOLES>
252.75
5.17
2.52
0.86
4.87
1.23
0
-1.67
-0.03
-1.6
0.06
0.3
0.41
0.02

>  <PUBCHEM_SHAPE_SELFOVERLAP>
522.95

>  <PUBCHEM_SHAPE_VOLUME>
144.3

>  <PUBCHEM_COORDINATE_TYPE>
2
5
10

$$$$
