79099278
 OpenBabel01182520543D

 23 23  0  0  0  0  0  0  0  0999 V2000
    4.4478    0.3525    1.0795 F   0  0  0  0  0  0  0  0  0  0  0  0
    4.4298    0.3370   -1.1014 F   0  0  0  0  0  0  0  0  0  0  0  0
   -4.2968   -1.2006    0.0058 O   0  0  0  0  0  0  0  0  0  0  0  0
    1.8766    0.3007    0.0107 N   0  0  0  0  0  0  0  0  0  0  0  0
   -0.2644    1.3459    0.0057 N   0  0  0  0  0  0  0  0  0  0  0  0
   -4.4235    1.0889   -0.0073 N   0  0  0  0  0  0  0  0  0  0  0  0
    2.7251   -0.8462    0.0116 C   0  0  0  0  0  0  0  0  0  0  0  0
    0.4628    0.2063    0.0062 C   0  0  0  0  0  0  0  0  0  0  0  0
   -0.0879   -1.0652    0.0027 C   0  0  0  0  0  0  0  0  0  0  0  0
   -2.2563   -0.0244   -0.0025 C   0  0  0  0  0  0  0  0  0  0  0  0
    4.1760   -0.4163   -0.0034 C   0  0  0  0  0  0  0  0  0  0  0  0
   -1.4742   -1.1741   -0.0019 C   0  0  0  0  0  0  0  0  0  0  0  0
   -1.6086    1.2004    0.0014 C   0  0  0  0  0  0  0  0  0  0  0  0
   -3.7064   -0.1050   -0.0070 C   0  0  0  0  0  0  0  0  0  0  0  0
    2.5551   -1.4479    0.9115 H   0  0  0  0  0  0  0  0  0  0  0  0
    2.5437   -1.4589   -0.8788 H   0  0  0  0  0  0  0  0  0  0  0  0
    2.2674    1.2360    0.0143 H   0  0  0  0  0  0  0  0  0  0  0  0
    0.4913   -1.9809    0.0040 H   0  0  0  0  0  0  0  0  0  0  0  0
    4.8551   -1.2733   -0.0030 H   0  0  0  0  0  0  0  0  0  0  0  0
   -1.9239   -2.1633   -0.0047 H   0  0  0  0  0  0  0  0  0  0  0  0
   -2.1178    2.1558    0.0017 H   0  0  0  0  0  0  0  0  0  0  0  0
   -4.0208    2.0174   -0.0127 H   0  0  0  0  0  0  0  0  0  0  0  0
   -5.4383    1.0615   -0.0037 H   0  0  0  0  0  0  0  0  0  0  0  0
  1 11  1  0  0  0  0
  2 11  1  0  0  0  0
  3 14  2  0  0  0  0
  4  7  1  0  0  0  0
  4  8  1  0  0  0  0
  4 17  1  0  0  0  0
  5  8  2  0  0  0  0
  5 13  1  0  0  0  0
  6 14  1  0  0  0  0
  6 22  1  0  0  0  0
  6 23  1  0  0  0  0
  7 11  1  0  0  0  0
  7 15  1  0  0  0  0
  7 16  1  0  0  0  0
  8  9  1  0  0  0  0
  9 12  2  0  0  0  0
  9 18  1  0  0  0  0
 10 12  1  0  0  0  0
 10 13  2  0  0  0  0
 10 14  1  0  0  0  0
 11 19  1  0  0  0  0
 12 20  1  0  0  0  0
 13 21  1  0  0  0  0
M  END
>  <PUBCHEM_COMPOUND_CID>
79099278

>  <PUBCHEM_CONFORMER_RMSD>
0.6

>  <PUBCHEM_CONFORMER_DIVERSEORDER>
1
20
26
32
14
8
11
27
29
4
25
31
9
30
18
24
22
10
28
23
2
17
15
16
12
7
13
21
19
3
6
5

>  <PUBCHEM_MMFF94_PARTIAL_CHARGES>
20
1 -0.34
10 0.09
11 0.68
12 -0.15
13 0.16
14 0.54
17 0.4
18 0.15
2 -0.34
20 0.15
21 0.15
22 0.37
23 0.37
3 -0.57
4 -0.87
5 -0.62
6 -0.8
7 0.37
8 0.41
9 -0.15

>  <PUBCHEM_EFFECTIVE_ROTOR_COUNT>
4

>  <PUBCHEM_PHARMACOPHORE_FEATURES>
5
1 3 acceptor
1 4 donor
1 6 donor
3 4 5 8 cation
6 5 8 9 10 12 13 rings

>  <PUBCHEM_HEAVY_ATOM_COUNT>
14

>  <PUBCHEM_ATOM_DEF_STEREO_COUNT>
0

>  <PUBCHEM_ATOM_UDEF_STEREO_COUNT>
0

>  <PUBCHEM_BOND_DEF_STEREO_COUNT>
0

>  <PUBCHEM_BOND_UDEF_STEREO_COUNT>
0

>  <PUBCHEM_ISOTOPIC_ATOM_COUNT>
0

>  <PUBCHEM_COMPONENT_COUNT>
1

>  <PUBCHEM_CACTVS_TAUTO_COUNT>
7

>  <PUBCHEM_CONFORMER_ID>
04B6F58E00000001

>  <PUBCHEM_MMFF94_ENERGY>
39.3703

>  <PUBCHEM_FEATURE_SELFOVERLAP>
25.372

>  <PUBCHEM_SHAPE_FINGERPRINT>
11062470 55 17418092117863668802
11132069 177 18412262826559001991
11401426 45 18411976953883874949
12032990 46 18411704304954350147
13214271 11 18343016684222770007
13690532 89 18334294266468281030
14123238 8 17822010925683521238
20279233 1 17917996079428932246
20510252 161 18202000971579867280
20528008 55 18202559588195850330
20645477 70 17988083270941082398
22485316 2 18341609304511629127
23402539 116 18342730815193822263
23402655 69 18196637520665824237
23532345 42 18411411847445576968
23559900 14 18342738503675983134
43471831 8 18262515883981002242
474 4 16806743969650098060
5104073 3 18339642248208162186
5374978 207 18410285905158585400
69090 78 18060412530002178398

>  <PUBCHEM_SHAPE_MULTIPOLES>
252.75
9.11
1.26
0.7
4.04
0
0
0.07
-0.02
-0.76
0
0.54
0.04
0

>  <PUBCHEM_SHAPE_SELFOVERLAP>
523.28

>  <PUBCHEM_SHAPE_VOLUME>
144.6

>  <PUBCHEM_COORDINATE_TYPE>
2
5
10

$$$$
