79099286
 OpenBabel01182520543D

 29 29  0  0  0  0  0  0  0  0999 V2000
   -5.1474   -0.8631   -0.2471 F   0  0  0  0  0  0  0  0  0  0  0  0
   -4.9207    1.3003   -0.4048 F   0  0  0  0  0  0  0  0  0  0  0  0
    3.5377   -1.6814    0.1811 O   0  0  0  0  0  0  0  0  0  0  0  0
   -2.4854   -0.0465   -0.2948 N   0  0  0  0  0  0  0  0  0  0  0  0
    3.8724    0.6257    0.0108 N   0  0  0  0  0  0  0  0  0  0  0  0
   -0.3677   -0.3299   -1.3492 N   0  0  0  0  0  0  0  0  0  0  0  0
    1.6338   -0.4063    0.0048 C   0  0  0  0  0  0  0  0  0  0  0  0
   -1.0765   -0.1709   -0.2090 C   0  0  0  0  0  0  0  0  0  0  0  0
   -3.3147    0.1244    0.8533 C   0  0  0  0  0  0  0  0  0  0  0  0
    3.0977   -0.5370    0.0776 C   0  0  0  0  0  0  0  0  0  0  0  0
    0.8706   -0.2414    1.1553 C   0  0  0  0  0  0  0  0  0  0  0  0
   -0.5111   -0.1207    1.0551 C   0  0  0  0  0  0  0  0  0  0  0  0
    0.9725   -0.4438   -1.2122 C   0  0  0  0  0  0  0  0  0  0  0  0
   -4.7630    0.2454    0.4318 C   0  0  0  0  0  0  0  0  0  0  0  0
    5.3275    0.5919    0.0594 C   0  0  0  0  0  0  0  0  0  0  0  0
    3.2742    1.9533   -0.1121 C   0  0  0  0  0  0  0  0  0  0  0  0
   -3.2236   -0.7378    1.5236 H   0  0  0  0  0  0  0  0  0  0  0  0
   -3.0409    1.0384    1.3924 H   0  0  0  0  0  0  0  0  0  0  0  0
   -2.8870   -0.0858   -1.2246 H   0  0  0  0  0  0  0  0  0  0  0  0
    1.3435   -0.2057    2.1331 H   0  0  0  0  0  0  0  0  0  0  0  0
   -1.0753    0.0059    1.9713 H   0  0  0  0  0  0  0  0  0  0  0  0
    1.5145   -0.5699   -2.1445 H   0  0  0  0  0  0  0  0  0  0  0  0
   -5.4277    0.3776    1.2900 H   0  0  0  0  0  0  0  0  0  0  0  0
    5.7230    1.0318   -0.8605 H   0  0  0  0  0  0  0  0  0  0  0  0
    5.6920   -0.4344    0.1512 H   0  0  0  0  0  0  0  0  0  0  0  0
    5.6667    1.1714    0.9226 H   0  0  0  0  0  0  0  0  0  0  0  0
    3.5936    2.5547    0.7447 H   0  0  0  0  0  0  0  0  0  0  0  0
    2.1854    1.9562   -0.1460 H   0  0  0  0  0  0  0  0  0  0  0  0
    3.6486    2.4150   -1.0312 H   0  0  0  0  0  0  0  0  0  0  0  0
  1 14  1  0  0  0  0
  2 14  1  0  0  0  0
  3 10  2  0  0  0  0
  4  8  1  0  0  0  0
  4  9  1  0  0  0  0
  4 19  1  0  0  0  0
  5 10  1  0  0  0  0
  5 15  1  0  0  0  0
  5 16  1  0  0  0  0
  6  8  2  0  0  0  0
  6 13  1  0  0  0  0
  7 10  1  0  0  0  0
  7 11  1  0  0  0  0
  7 13  2  0  0  0  0
  8 12  1  0  0  0  0
  9 14  1  0  0  0  0
  9 17  1  0  0  0  0
  9 18  1  0  0  0  0
 11 12  2  0  0  0  0
 11 20  1  0  0  0  0
 12 21  1  0  0  0  0
 13 22  1  0  0  0  0
 14 23  1  0  0  0  0
 15 24  1  0  0  0  0
 15 25  1  0  0  0  0
 15 26  1  0  0  0  0
 16 27  1  0  0  0  0
 16 28  1  0  0  0  0
 16 29  1  0  0  0  0
M  END
>  <PUBCHEM_COMPOUND_CID>
79099286

>  <PUBCHEM_CONFORMER_RMSD>
0.6

>  <PUBCHEM_CONFORMER_DIVERSEORDER>
1
65
61
54
23
15
37
76
24
46
62
73
55
64
13
60
27
47
34
48
22
59
14
41
71
33
52
32
51
40
12
44
30
19
17
70
66
29
11
53
16
67
42
5
38
8
39
77
26
36
63
50
43
20
72
75
6
78
56
49
57
45
68
18
3
74
10
35
28
31
7
69
2
21
58
25
9
4

>  <PUBCHEM_MMFF94_PARTIAL_CHARGES>
20
1 -0.34
10 0.54
11 -0.15
12 -0.15
13 0.16
14 0.68
15 0.3
16 0.3
19 0.4
2 -0.34
20 0.15
21 0.15
22 0.15
3 -0.57
4 -0.87
5 -0.66
6 -0.62
7 0.09
8 0.41
9 0.37

>  <PUBCHEM_EFFECTIVE_ROTOR_COUNT>
5

>  <PUBCHEM_PHARMACOPHORE_FEATURES>
4
1 3 acceptor
1 4 donor
3 4 6 8 cation
6 6 7 8 11 12 13 rings

>  <PUBCHEM_HEAVY_ATOM_COUNT>
16

>  <PUBCHEM_ATOM_DEF_STEREO_COUNT>
0

>  <PUBCHEM_ATOM_UDEF_STEREO_COUNT>
0

>  <PUBCHEM_BOND_DEF_STEREO_COUNT>
0

>  <PUBCHEM_BOND_UDEF_STEREO_COUNT>
0

>  <PUBCHEM_ISOTOPIC_ATOM_COUNT>
0

>  <PUBCHEM_COMPONENT_COUNT>
1

>  <PUBCHEM_CACTVS_TAUTO_COUNT>
4

>  <PUBCHEM_CONFORMER_ID>
04B6F59600000001

>  <PUBCHEM_MMFF94_ENERGY>
48.1365

>  <PUBCHEM_FEATURE_SELFOVERLAP>
20.297

>  <PUBCHEM_SHAPE_FINGERPRINT>
10354089 29 18413109476683171904
11132069 177 16298389071682796059
11287383 113 18410295839112102675
11401426 45 16008748026433956123
12236239 1 17917713500471299826
12616999 72 17060347318248351974
13675066 3 17603594023463480579
13760787 19 18130785680921926078
14123238 8 18272370879994075539
14251718 22 18201718492044857107
14252887 29 16732987483379564578
14911166 2 15697999647718419312
14993402 34 16917069970843923136
15048467 5 18412545418232692320
15342168 16 17972040499092051956
17834072 33 18341047510168070087
187816 3 15195572311869246690
19026448 4 18260835886237667635
19026448 5 18342736321136381431
20645476 183 17775001340730104006
20645477 70 18340488863798792318
22854114 59 17385724694586291489
23402539 116 18409443691825426237
23559900 14 18409169896456333114
4047638 21 18335424569117437906
474 4 18263646341301663912
537710 114 17132119039189211584
69090 78 18040716991125200035
7495541 125 17917146216801074555
81539 233 17703513207462759255
8272917 22 18342462495871127382

>  <PUBCHEM_SHAPE_MULTIPOLES>
293.91
10.78
1.21
1.03
6.47
0.3
0.03
2.35
-0.16
-0.99
0.07
0.18
-0.09
-0.1

>  <PUBCHEM_SHAPE_SELFOVERLAP>
600.125

>  <PUBCHEM_SHAPE_VOLUME>
171.4

>  <PUBCHEM_COORDINATE_TYPE>
2
5
10

$$$$
