80347887
 OpenBabel01182520543D

 23 23  0  0  0  0  0  0  0  0999 V2000
    4.7121   -1.1592   -0.0165 F   0  0  0  0  0  0  0  0  0  0  0  0
    4.0924    0.6277   -1.1007 F   0  0  0  0  0  0  0  0  0  0  0  0
    4.1246    0.6280    1.0849 F   0  0  0  0  0  0  0  0  0  0  0  0
   -4.5715   -1.3300    0.0048 O   0  0  0  0  0  0  0  0  0  0  0  0
    1.5177    0.4829    0.0143 N   0  0  0  0  0  0  0  0  0  0  0  0
   -0.6737    1.4180    0.0064 N   0  0  0  0  0  0  0  0  0  0  0  0
   -4.8143    0.9501   -0.0102 N   0  0  0  0  0  0  0  0  0  0  0  0
    2.4233   -0.6195    0.0169 C   0  0  0  0  0  0  0  0  0  0  0  0
    0.1105    0.3167    0.0085 C   0  0  0  0  0  0  0  0  0  0  0  0
   -0.3750   -0.9811    0.0055 C   0  0  0  0  0  0  0  0  0  0  0  0
    3.8474   -0.1203   -0.0039 C   0  0  0  0  0  0  0  0  0  0  0  0
   -2.5934   -0.0517   -0.0025 C   0  0  0  0  0  0  0  0  0  0  0  0
   -1.7539   -1.1602   -0.0002 C   0  0  0  0  0  0  0  0  0  0  0  0
   -2.0087    1.2044    0.0010 C   0  0  0  0  0  0  0  0  0  0  0  0
   -4.0375   -0.2059   -0.0083 C   0  0  0  0  0  0  0  0  0  0  0  0
    2.2881   -1.2350    0.9137 H   0  0  0  0  0  0  0  0  0  0  0  0
    2.2736   -1.2509   -0.8666 H   0  0  0  0  0  0  0  0  0  0  0  0
    1.8604    1.4368    0.0178 H   0  0  0  0  0  0  0  0  0  0  0  0
    0.2499   -1.8662    0.0084 H   0  0  0  0  0  0  0  0  0  0  0  0
   -2.1528   -2.1710   -0.0026 H   0  0  0  0  0  0  0  0  0  0  0  0
   -2.5658    2.1327    0.0000 H   0  0  0  0  0  0  0  0  0  0  0  0
   -4.4592    1.8979   -0.0160 H   0  0  0  0  0  0  0  0  0  0  0  0
   -5.8264    0.8712   -0.0075 H   0  0  0  0  0  0  0  0  0  0  0  0
  1 11  1  0  0  0  0
  2 11  1  0  0  0  0
  3 11  1  0  0  0  0
  4 15  2  0  0  0  0
  5  8  1  0  0  0  0
  5  9  1  0  0  0  0
  5 18  1  0  0  0  0
  6  9  2  0  0  0  0
  6 14  1  0  0  0  0
  7 15  1  0  0  0  0
  7 22  1  0  0  0  0
  7 23  1  0  0  0  0
  8 11  1  0  0  0  0
  8 16  1  0  0  0  0
  8 17  1  0  0  0  0
  9 10  1  0  0  0  0
 10 13  2  0  0  0  0
 10 19  1  0  0  0  0
 12 13  1  0  0  0  0
 12 14  2  0  0  0  0
 12 15  1  0  0  0  0
 13 20  1  0  0  0  0
 14 21  1  0  0  0  0
M  END
>  <PUBCHEM_COMPOUND_CID>
80347887

>  <PUBCHEM_CONFORMER_RMSD>
0.6

>  <PUBCHEM_CONFORMER_DIVERSEORDER>
1
7
6
10
11
2
8
3
5
4
12
9

>  <PUBCHEM_MMFF94_PARTIAL_CHARGES>
21
1 -0.34
10 -0.15
11 1.02
12 0.09
13 -0.15
14 0.16
15 0.54
18 0.4
19 0.15
2 -0.34
20 0.15
21 0.15
22 0.37
23 0.37
3 -0.34
4 -0.57
5 -0.87
6 -0.62
7 -0.8
8 0.37
9 0.41

>  <PUBCHEM_EFFECTIVE_ROTOR_COUNT>
4

>  <PUBCHEM_PHARMACOPHORE_FEATURES>
5
1 4 acceptor
1 5 donor
1 7 donor
3 5 6 9 cation
6 6 9 10 12 13 14 rings

>  <PUBCHEM_HEAVY_ATOM_COUNT>
15

>  <PUBCHEM_ATOM_DEF_STEREO_COUNT>
0

>  <PUBCHEM_ATOM_UDEF_STEREO_COUNT>
0

>  <PUBCHEM_BOND_DEF_STEREO_COUNT>
0

>  <PUBCHEM_BOND_UDEF_STEREO_COUNT>
0

>  <PUBCHEM_ISOTOPIC_ATOM_COUNT>
0

>  <PUBCHEM_COMPONENT_COUNT>
1

>  <PUBCHEM_CACTVS_TAUTO_COUNT>
7

>  <PUBCHEM_CONFORMER_ID>
04CA02EF00000001

>  <PUBCHEM_MMFF94_ENERGY>
42.0205

>  <PUBCHEM_FEATURE_SELFOVERLAP>
25.372

>  <PUBCHEM_SHAPE_FINGERPRINT>
11401426 45 18412258437571858989
12032990 46 18410857693954325899
12119455 92 17132111329775636805
12236239 1 17894631457232924270
13214271 11 18343299263148481071
13675066 3 18412544335979860115
13690532 89 18335139795257703663
13862211 1 18411976992607678599
14123238 8 18407760360729183671
17804303 29 18342739645783849569
18186145 218 16805320024471089934
200 152 17632572747529859683
20279233 1 17775289365605767758
20510252 161 18201438030364145065
20645477 70 18340771447161902206
22485316 2 18343861125810648407
22854114 59 17847057796406330922
23402539 116 18272081695762007015
23557571 272 18338241444608896580
23559900 14 18341611529921659096
42 15 18410011018297904426
42788 4 18410856559655646311
43471831 8 18261951838879459787
474 4 16734403801044736380
5104073 3 18411136935168183440
5374978 207 18411975867346917624
69090 78 18131626798574129359

>  <PUBCHEM_SHAPE_MULTIPOLES>
266.06
9.95
1.29
0.69
3.42
0.02
0
0.74
0.04
-0.59
0
0.46
-0.07
0.01

>  <PUBCHEM_SHAPE_SELFOVERLAP>
555.608

>  <PUBCHEM_SHAPE_VOLUME>
151.6

>  <PUBCHEM_COORDINATE_TYPE>
2
5
10

$$$$
