80353123
 OpenBabel01182520543D

 37 37  0  0  0  0  0  0  0  0999 V2000
   -5.6596    1.6757   -0.1996 O   0  0  0  0  0  0  0  0  0  0  0  0
    6.1448    0.4677   -0.2085 N   0  0  0  0  0  0  0  0  0  0  0  0
    0.0916   -0.9380    0.0677 N   0  0  0  0  0  0  0  0  0  0  0  0
   -2.1773   -1.5582    0.1995 N   0  0  0  0  0  0  0  0  0  0  0  0
   -6.2134   -0.5242    0.1352 N   0  0  0  0  0  0  0  0  0  0  0  0
    3.7015    0.2701   -0.1733 C   0  0  0  0  0  0  0  0  0  0  0  0
    2.5224   -0.6966   -0.0201 C   0  0  0  0  0  0  0  0  0  0  0  0
    5.0356   -0.4684   -0.0694 C   0  0  0  0  0  0  0  0  0  0  0  0
    1.1701    0.0083   -0.0860 C   0  0  0  0  0  0  0  0  0  0  0  0
    6.3325    1.2318    1.0260 C   0  0  0  0  0  0  0  0  0  0  0  0
    7.3767   -0.2413   -0.5589 C   0  0  0  0  0  0  0  0  0  0  0  0
   -1.2493   -0.5873    0.0454 C   0  0  0  0  0  0  0  0  0  0  0  0
   -1.5515    0.7528   -0.1359 C   0  0  0  0  0  0  0  0  0  0  0  0
   -2.8924    1.1200   -0.1604 C   0  0  0  0  0  0  0  0  0  0  0  0
   -3.8762    0.1496   -0.0053 C   0  0  0  0  0  0  0  0  0  0  0  0
   -3.4700   -1.1634    0.1701 C   0  0  0  0  0  0  0  0  0  0  0  0
   -5.2852    0.5015   -0.0265 C   0  0  0  0  0  0  0  0  0  0  0  0
    3.6311    0.7809   -1.1419 H   0  0  0  0  0  0  0  0  0  0  0  0
    3.6117    1.0374    0.6030 H   0  0  0  0  0  0  0  0  0  0  0  0
    2.5732   -1.4622   -0.8051 H   0  0  0  0  0  0  0  0  0  0  0  0
    2.6076   -1.2272    0.9371 H   0  0  0  0  0  0  0  0  0  0  0  0
    5.0630   -1.2035   -0.8849 H   0  0  0  0  0  0  0  0  0  0  0  0
    5.0992   -1.0377    0.8670 H   0  0  0  0  0  0  0  0  0  0  0  0
    1.1309    0.7610    0.7109 H   0  0  0  0  0  0  0  0  0  0  0  0
    1.0929    0.5197   -1.0533 H   0  0  0  0  0  0  0  0  0  0  0  0
    0.3042   -1.9201    0.2009 H   0  0  0  0  0  0  0  0  0  0  0  0
    6.5244    0.5849    1.8900 H   0  0  0  0  0  0  0  0  0  0  0  0
    7.1835    1.9153    0.9225 H   0  0  0  0  0  0  0  0  0  0  0  0
    5.4702    1.8660    1.2510 H   0  0  0  0  0  0  0  0  0  0  0  0
    7.2622   -0.7667   -1.5137 H   0  0  0  0  0  0  0  0  0  0  0  0
    8.2040    0.4651   -0.6904 H   0  0  0  0  0  0  0  0  0  0  0  0
    7.6642   -0.9717    0.2062 H   0  0  0  0  0  0  0  0  0  0  0  0
   -0.8114    1.5346   -0.2596 H   0  0  0  0  0  0  0  0  0  0  0  0
   -3.1484    2.1666   -0.3012 H   0  0  0  0  0  0  0  0  0  0  0  0
   -4.1494   -1.9963    0.2995 H   0  0  0  0  0  0  0  0  0  0  0  0
   -5.9920   -1.5017    0.2755 H   0  0  0  0  0  0  0  0  0  0  0  0
   -7.2050   -0.3071    0.1177 H   0  0  0  0  0  0  0  0  0  0  0  0
  1 17  2  0  0  0  0
  2  8  1  0  0  0  0
  2 10  1  0  0  0  0
  2 11  1  0  0  0  0
  3  9  1  0  0  0  0
  3 12  1  0  0  0  0
  3 26  1  0  0  0  0
  4 12  2  0  0  0  0
  4 16  1  0  0  0  0
  5 17  1  0  0  0  0
  5 36  1  0  0  0  0
  5 37  1  0  0  0  0
  6  7  1  0  0  0  0
  6  8  1  0  0  0  0
  6 18  1  0  0  0  0
  6 19  1  0  0  0  0
  7  9  1  0  0  0  0
  7 20  1  0  0  0  0
  7 21  1  0  0  0  0
  8 22  1  0  0  0  0
  8 23  1  0  0  0  0
  9 24  1  0  0  0  0
  9 25  1  0  0  0  0
 10 27  1  0  0  0  0
 10 28  1  0  0  0  0
 10 29  1  0  0  0  0
 11 30  1  0  0  0  0
 11 31  1  0  0  0  0
 11 32  1  0  0  0  0
 12 13  1  0  0  0  0
 13 14  2  0  0  0  0
 13 33  1  0  0  0  0
 14 15  1  0  0  0  0
 14 34  1  0  0  0  0
 15 16  2  0  0  0  0
 15 17  1  0  0  0  0
 16 35  1  0  0  0  0
M  END
>  <PUBCHEM_COMPOUND_CID>
80353123

>  <PUBCHEM_CONFORMER_RMSD>
0.8

>  <PUBCHEM_CONFORMER_DIVERSEORDER>
1
62
71
138
77
86
30
9
132
50
117
28
76
114
85
136
115
87
122
14
128
89
137
142
53
49
106
107
42
24
134
73
140
68
139
34
88
92
66
100
144
56
105
141
75
15
13
43
10
133
121
55
31
19
118
22
125
17
18
33
44
52
57
61
23
112
102
3
81
78
2
40
5
64
119
26
27
97
126
37
124
8
58
69
25
130
74
94
12
4
113
63
65
82
60
59
32
123
70
35
143
54
36
72
91
109
16
79
80
131
21
120
20
48
51
11
129
103
99
29
104
108
93
83
111
7
101
98
41
84
6
135
90
116
95
67
96
110
46
127
39
47
45
38

>  <PUBCHEM_MMFF94_PARTIAL_CHARGES>
21
1 -0.57
10 0.27
11 0.27
12 0.41
13 -0.15
14 -0.15
15 0.09
16 0.16
17 0.54
2 -0.81
26 0.4
3 -0.87
33 0.15
34 0.15
35 0.15
36 0.37
37 0.37
4 -0.62
5 -0.8
8 0.27
9 0.37

>  <PUBCHEM_EFFECTIVE_ROTOR_COUNT>
7

>  <PUBCHEM_PHARMACOPHORE_FEATURES>
6
1 1 acceptor
1 2 cation
1 3 donor
1 5 donor
3 3 4 12 cation
6 4 12 13 14 15 16 rings

>  <PUBCHEM_HEAVY_ATOM_COUNT>
17

>  <PUBCHEM_ATOM_DEF_STEREO_COUNT>
0

>  <PUBCHEM_ATOM_UDEF_STEREO_COUNT>
0

>  <PUBCHEM_BOND_DEF_STEREO_COUNT>
0

>  <PUBCHEM_BOND_UDEF_STEREO_COUNT>
0

>  <PUBCHEM_ISOTOPIC_ATOM_COUNT>
0

>  <PUBCHEM_COMPONENT_COUNT>
1

>  <PUBCHEM_CACTVS_TAUTO_COUNT>
7

>  <PUBCHEM_CONFORMER_ID>
04CA176300000001

>  <PUBCHEM_MMFF94_ENERGY>
46.2257

>  <PUBCHEM_FEATURE_SELFOVERLAP>
30.446

>  <PUBCHEM_SHAPE_FINGERPRINT>
10354089 29 17676205776052342232
10411042 1 18048320243983297683
10968037 39 18409730664497432255
11315181 36 17989211464370360712
117890 112 18411136931284691312
12091667 2 18410576193376713903
12236239 1 17821445742310137370
12616971 3 16370730365511846470
13533116 47 17822566106795673706
14251764 18 18040150725372415675
14251764 46 17385444324144046203
14729087 3 18411132528716742912
14933364 13 18412265043305504144
15048467 5 18408322168189694653
15501527 16 18411982459673271819
16079462 125 18272359880772988040
17834076 25 18334576845494186438
20281389 69 18334855009199038816
20645477 56 18410572881471599567
20645477 70 17274268232293600694
20767249 213 18408041814405046684
21150785 3 16630802223016434813
21267235 1 18335988661959596683
220451 1 16008748031224828402
23198884 109 17203331100190196315
23402539 116 18412541032939110686
23559900 14 18271519887948431928
246663 6 12175614106171958573
300161 21 18335696135462366642
3545911 37 18410293601602926862
4073 2 17968383446293189610
42788 4 18410856555355378294
4463277 17 18411418410266420336
5104073 3 18188495657850865683
542803 24 17240482520409351278
59682541 35 18335428989266501155
59755656 215 18411706452833962190
59755656 520 16950000348354300634
8209 1 18410856559713707686

>  <PUBCHEM_SHAPE_MULTIPOLES>
324.06
19.18
1.29
0.69
19.93
0.1
0.05
4.05
-0.12
-0.91
0.09
0.55
0.08
0.81

>  <PUBCHEM_SHAPE_SELFOVERLAP>
647.935

>  <PUBCHEM_SHAPE_VOLUME>
192.1

>  <PUBCHEM_COORDINATE_TYPE>
2
5
10

$$$$
