80583580
 OpenBabel01182520543D

 17 17  0  0  0  0  0  0  0  0999 V2000
    1.5073   -1.7399    0.4547 O   0  0  0  0  0  0  0  0  0  0  0  0
   -0.7447    1.7998    0.3762 N   0  0  0  0  0  0  0  0  0  0  0  0
   -0.2739   -2.9877   -0.2722 N   0  0  0  0  0  0  0  0  0  0  0  0
    1.3183    0.8230    0.8043 N   0  0  0  0  0  0  0  0  0  0  0  0
    2.0911    1.0577   -0.1496 N   0  3  0  0  0  0  0  0  0  0  0  0
    2.7906    1.2715   -1.0258 N   0  5  0  0  0  0  0  0  0  0  0  0
   -0.5048   -0.5839    0.0518 C   0  0  0  0  0  0  0  0  0  0  0  0
   -1.8356   -0.6718   -0.3415 C   0  0  0  0  0  0  0  0  0  0  0  0
   -0.0118    0.6639    0.3977 C   0  0  0  0  0  0  0  0  0  0  0  0
   -2.6216    0.4748   -0.3764 C   0  0  0  0  0  0  0  0  0  0  0  0
    0.3190   -1.7827    0.0921 C   0  0  0  0  0  0  0  0  0  0  0  0
   -2.0339    1.6753   -0.0113 C   0  0  0  0  0  0  0  0  0  0  0  0
   -2.3255   -1.5929   -0.6322 H   0  0  0  0  0  0  0  0  0  0  0  0
   -3.6615    0.4313   -0.6796 H   0  0  0  0  0  0  0  0  0  0  0  0
   -2.6040    2.5984   -0.0215 H   0  0  0  0  0  0  0  0  0  0  0  0
   -1.2313   -3.1134   -0.5741 H   0  0  0  0  0  0  0  0  0  0  0  0
    0.2779   -3.8395   -0.2460 H   0  0  0  0  0  0  0  0  0  0  0  0
  1 11  2  0  0  0  0
  2  9  1  0  0  0  0
  2 12  2  0  0  0  0
  3 11  1  0  0  0  0
  3 16  1  0  0  0  0
  3 17  1  0  0  0  0
  4  5  2  0  0  0  0
  4  9  1  0  0  0  0
  5  6  2  0  0  0  0
  7  8  1  0  0  0  0
  7  9  2  0  0  0  0
  7 11  1  0  0  0  0
  8 10  2  0  0  0  0
  8 13  1  0  0  0  0
 10 12  1  0  0  0  0
 10 14  1  0  0  0  0
 12 15  1  0  0  0  0
M  CHG  2   5   1   6  -1
M  END
>  <PUBCHEM_COMPOUND_CID>
80583580

>  <PUBCHEM_CONFORMER_RMSD>
0.6

>  <PUBCHEM_CONFORMER_DIVERSEORDER>
7
6
11
5
9
4
12
1
10
8
3
2

>  <PUBCHEM_MMFF94_PARTIAL_CHARGES>
17
1 -0.57
10 -0.15
11 0.54
12 0.16
13 0.15
14 0.15
15 0.15
16 0.37
17 0.37
2 -0.62
3 -0.8
4 -0.5
5 0.69
6 -0.37
7 0.09
8 -0.15
9 0.49

>  <PUBCHEM_EFFECTIVE_ROTOR_COUNT>
2

>  <PUBCHEM_PHARMACOPHORE_FEATURES>
4
1 1 acceptor
1 2 acceptor
1 3 donor
6 2 7 8 9 10 12 rings

>  <PUBCHEM_HEAVY_ATOM_COUNT>
12

>  <PUBCHEM_ATOM_DEF_STEREO_COUNT>
0

>  <PUBCHEM_ATOM_UDEF_STEREO_COUNT>
0

>  <PUBCHEM_BOND_DEF_STEREO_COUNT>
0

>  <PUBCHEM_BOND_UDEF_STEREO_COUNT>
1

>  <PUBCHEM_ISOTOPIC_ATOM_COUNT>
0

>  <PUBCHEM_COMPONENT_COUNT>
1

>  <PUBCHEM_CACTVS_TAUTO_COUNT>
2

>  <PUBCHEM_CONFORMER_ID>
04CD9B9C00000007

>  <PUBCHEM_MMFF94_ENERGY>
34.8342

>  <PUBCHEM_FEATURE_SELFOVERLAP>
20.297

>  <PUBCHEM_SHAPE_FINGERPRINT>
12423570 1 17974834082669213633
12524768 44 17119157729944071039
12716758 59 18268432519638155760
14128692 85 17912634718396420019
16945 1 18195235835669250297
18185500 45 17547570379612366387
20645476 183 17968942019030825052
21040471 1 18339630247937375264
21501502 16 18339078169168711193
22802520 49 18056493973998371124
23552423 10 18194396693696520453
23559900 14 13734420942163963327
241688 4 16826151036452391819
2748010 2 18411131433536726311
528862 383 18261950730687563842

>  <PUBCHEM_SHAPE_MULTIPOLES>
216.18
3.16
2.6
0.76
0.12
1.5
-0.05
-1.51
-0.67
-0.82
-0.16
-0.21
-0.16
-0.46

>  <PUBCHEM_SHAPE_SELFOVERLAP>
457.065

>  <PUBCHEM_SHAPE_VOLUME>
119

>  <PUBCHEM_COORDINATE_TYPE>
2
5
10

$$$$
