80583554
 OpenBabel01182520543D

 23 23  0  0  0  0  0  0  0  0999 V2000
    2.4008    1.8964   -0.0242 O   0  0  0  0  0  0  0  0  0  0  0  0
    3.1713   -0.3097    0.0320 N   0  0  0  0  0  0  0  0  0  0  0  0
   -1.2360   -0.2820    1.1792 N   0  0  0  0  0  0  0  0  0  0  0  0
   -3.1838   -0.8839    0.0488 N   0  0  0  0  0  0  0  0  0  0  0  0
   -3.9724    0.0869    0.0371 N   0  3  0  0  0  0  0  0  0  0  0  0
   -4.6967    0.9689    0.0269 N   0  5  0  0  0  0  0  0  0  0  0  0
    0.7765    0.2704   -0.0412 C   0  0  0  0  0  0  0  0  0  0  0  0
    2.1885    0.6844   -0.0151 C   0  0  0  0  0  0  0  0  0  0  0  0
    0.1184    0.0420   -1.2446 C   0  0  0  0  0  0  0  0  0  0  0  0
    4.5922    0.0061    0.0761 C   0  0  0  0  0  0  0  0  0  0  0  0
    2.8389   -1.7327    0.0399 C   0  0  0  0  0  0  0  0  0  0  0  0
    0.0612    0.0961    1.1325 C   0  0  0  0  0  0  0  0  0  0  0  0
   -1.2163   -0.3481   -1.2374 C   0  0  0  0  0  0  0  0  0  0  0  0
   -1.8426   -0.4948   -0.0101 C   0  0  0  0  0  0  0  0  0  0  0  0
    5.0199   -0.4124    0.9915 H   0  0  0  0  0  0  0  0  0  0  0  0
    4.7531    1.0871    0.0670 H   0  0  0  0  0  0  0  0  0  0  0  0
    5.0807   -0.4364   -0.7966 H   0  0  0  0  0  0  0  0  0  0  0  0
    3.3117   -2.2008   -0.8291 H   0  0  0  0  0  0  0  0  0  0  0  0
    1.7714   -1.9469    0.0061 H   0  0  0  0  0  0  0  0  0  0  0  0
    3.2504   -2.1765    0.9519 H   0  0  0  0  0  0  0  0  0  0  0  0
    0.6364    0.1648   -2.1918 H   0  0  0  0  0  0  0  0  0  0  0  0
    0.5211    0.2592    2.1025 H   0  0  0  0  0  0  0  0  0  0  0  0
   -1.7407   -0.5300   -2.1694 H   0  0  0  0  0  0  0  0  0  0  0  0
  1  8  2  0  0  0  0
  2  8  1  0  0  0  0
  2 10  1  0  0  0  0
  2 11  1  0  0  0  0
  3 12  1  0  0  0  0
  3 14  2  0  0  0  0
  4  5  2  0  0  0  0
  4 14  1  0  0  0  0
  5  6  2  0  0  0  0
  7  8  1  0  0  0  0
  7  9  1  0  0  0  0
  7 12  2  0  0  0  0
  9 13  2  0  0  0  0
  9 21  1  0  0  0  0
 10 15  1  0  0  0  0
 10 16  1  0  0  0  0
 10 17  1  0  0  0  0
 11 18  1  0  0  0  0
 11 19  1  0  0  0  0
 11 20  1  0  0  0  0
 12 22  1  0  0  0  0
 13 14  1  0  0  0  0
 13 23  1  0  0  0  0
M  CHG  2   5   1   6  -1
M  END
>  <PUBCHEM_COMPOUND_CID>
80583554

>  <PUBCHEM_CONFORMER_RMSD>
0.6

>  <PUBCHEM_CONFORMER_DIVERSEORDER>
1
9
13
8
3
12
6
4
5
10
7
11
2

>  <PUBCHEM_MMFF94_PARTIAL_CHARGES>
17
1 -0.57
10 0.3
11 0.3
12 0.16
13 -0.15
14 0.49
2 -0.66
21 0.15
22 0.15
23 0.15
3 -0.62
4 -0.5
5 0.69
6 -0.37
7 0.09
8 0.54
9 -0.15

>  <PUBCHEM_EFFECTIVE_ROTOR_COUNT>
3

>  <PUBCHEM_PHARMACOPHORE_FEATURES>
3
1 1 acceptor
3 3 4 14 cation
6 3 7 9 12 13 14 rings

>  <PUBCHEM_HEAVY_ATOM_COUNT>
14

>  <PUBCHEM_ATOM_DEF_STEREO_COUNT>
0

>  <PUBCHEM_ATOM_UDEF_STEREO_COUNT>
0

>  <PUBCHEM_BOND_DEF_STEREO_COUNT>
0

>  <PUBCHEM_BOND_UDEF_STEREO_COUNT>
0

>  <PUBCHEM_ISOTOPIC_ATOM_COUNT>
0

>  <PUBCHEM_COMPONENT_COUNT>
1

>  <PUBCHEM_CACTVS_TAUTO_COUNT>
1

>  <PUBCHEM_CONFORMER_ID>
04CD9B8200000001

>  <PUBCHEM_MMFF94_ENERGY>
40.1232

>  <PUBCHEM_FEATURE_SELFOVERLAP>
15.223

>  <PUBCHEM_SHAPE_FINGERPRINT>
10130415 120 17703790331521222770
11062470 55 18273496775331709218
11401426 45 15626221304106833265
124424 183 17917991685455640891
12500047 106 18410571820778474107
13538477 17 17346312764924147510
13571099 22 18130793325989820142
13675066 3 17775282789599419766
13760787 19 18272653488715805423
14993402 34 16702303463954319616
18175812 5 17822294642759832302
18186145 218 17749099024080096197
19026448 4 18335422413027998587
19026448 5 18340767143324492551
200 152 18272650160121230658
20201158 50 17967814946898876810
20645476 183 17773315844832953996
20645477 70 18411982416761126374
23402539 116 18130781244795494789
2748010 2 15214724829456926859
4072396 5 16629959911336949295
8272917 22 18342463595029268886

>  <PUBCHEM_SHAPE_MULTIPOLES>
257.34
7.65
1.21
1.01
2.39
0.05
0.08
0.47
-0.37
-0.77
0
0.24
-0.05
-0.08

>  <PUBCHEM_SHAPE_SELFOVERLAP>
531.301

>  <PUBCHEM_SHAPE_VOLUME>
147.1

>  <PUBCHEM_COORDINATE_TYPE>
2
5
10

$$$$
