835746
 OpenBabel01182520543D

 27 28  0  0  0  0  0  0  0  0999 V2000
   -0.5859    1.8136    0.2894 O   0  0  0  0  0  0  0  0  0  0  0  0
    0.1089   -0.3965   -0.0818 N   0  0  0  0  0  0  0  0  0  0  0  0
    2.2384   -1.4111   -0.2487 N   0  0  0  0  0  0  0  0  0  0  0  0
   -4.5461    0.7367   -0.4195 N   0  0  0  0  0  0  0  0  0  0  0  0
    1.5212   -0.2899   -0.0611 C   0  0  0  0  0  0  0  0  0  0  0  0
    4.2223   -0.0488   -0.0184 C   0  0  0  0  0  0  0  0  0  0  0  0
    2.0481    0.9658    0.1500 C   0  0  0  0  0  0  0  0  0  0  0  0
   -2.2358    0.1928    0.0411 C   0  0  0  0  0  0  0  0  0  0  0  0
    3.4337    1.0807    0.1705 C   0  0  0  0  0  0  0  0  0  0  0  0
   -0.8469    0.6160    0.0871 C   0  0  0  0  0  0  0  0  0  0  0  0
    3.5816   -1.2603   -0.2222 C   0  0  0  0  0  0  0  0  0  0  0  0
    5.7067    0.0406   -0.0038 C   0  0  0  0  0  0  0  0  0  0  0  0
   -2.6034   -1.1003    0.3963 C   0  0  0  0  0  0  0  0  0  0  0  0
   -3.2361    1.0653   -0.3563 C   0  0  0  0  0  0  0  0  0  0  0  0
   -3.9412   -1.4759    0.3441 C   0  0  0  0  0  0  0  0  0  0  0  0
   -4.8653   -0.5287   -0.0668 C   0  0  0  0  0  0  0  0  0  0  0  0
    1.5074    1.8837    0.3037 H   0  0  0  0  0  0  0  0  0  0  0  0
    3.8893    2.0534    0.3355 H   0  0  0  0  0  0  0  0  0  0  0  0
   -0.2065   -1.3426   -0.2758 H   0  0  0  0  0  0  0  0  0  0  0  0
    4.1424   -2.1776   -0.3740 H   0  0  0  0  0  0  0  0  0  0  0  0
    6.0815   -0.0840    1.0169 H   0  0  0  0  0  0  0  0  0  0  0  0
    6.1559   -0.7311   -0.6382 H   0  0  0  0  0  0  0  0  0  0  0  0
    6.0468    1.0088   -0.3868 H   0  0  0  0  0  0  0  0  0  0  0  0
   -1.8870   -1.8352    0.7505 H   0  0  0  0  0  0  0  0  0  0  0  0
   -3.0188    2.0876   -0.6508 H   0  0  0  0  0  0  0  0  0  0  0  0
   -4.2524   -2.4759    0.6238 H   0  0  0  0  0  0  0  0  0  0  0  0
   -5.9215   -0.7710   -0.1226 H   0  0  0  0  0  0  0  0  0  0  0  0
  1 10  2  0  0  0  0
  2  5  1  0  0  0  0
  2 10  1  0  0  0  0
  2 19  1  0  0  0  0
  3  5  2  0  0  0  0
  3 11  1  0  0  0  0
  4 14  1  0  0  0  0
  4 16  2  0  0  0  0
  5  7  1  0  0  0  0
  6  9  1  0  0  0  0
  6 11  2  0  0  0  0
  6 12  1  0  0  0  0
  7  9  2  0  0  0  0
  7 17  1  0  0  0  0
  8 10  1  0  0  0  0
  8 13  1  0  0  0  0
  8 14  2  0  0  0  0
  9 18  1  0  0  0  0
 11 20  1  0  0  0  0
 12 21  1  0  0  0  0
 12 22  1  0  0  0  0
 12 23  1  0  0  0  0
 13 15  2  0  0  0  0
 13 24  1  0  0  0  0
 14 25  1  0  0  0  0
 15 16  1  0  0  0  0
 15 26  1  0  0  0  0
 16 27  1  0  0  0  0
M  END
>  <PUBCHEM_COMPOUND_CID>
835746

>  <PUBCHEM_CONFORMER_RMSD>
0.6

>  <PUBCHEM_CONFORMER_DIVERSEORDER>
2
3
1
4

>  <PUBCHEM_MMFF94_PARTIAL_CHARGES>
24
1 -0.57
10 0.54
11 0.16
12 0.14
13 -0.15
14 0.16
15 -0.15
16 0.16
17 0.15
18 0.15
19 0.37
2 -0.55
20 0.15
24 0.15
25 0.15
26 0.15
27 0.15
3 -0.62
4 -0.62
5 0.43
6 -0.14
7 -0.15
8 0.09
9 -0.15

>  <PUBCHEM_EFFECTIVE_ROTOR_COUNT>
3

>  <PUBCHEM_PHARMACOPHORE_FEATURES>
5
1 1 acceptor
1 2 donor
1 4 acceptor
6 3 5 6 7 9 11 rings
6 4 8 13 14 15 16 rings

>  <PUBCHEM_HEAVY_ATOM_COUNT>
16

>  <PUBCHEM_ATOM_DEF_STEREO_COUNT>
0

>  <PUBCHEM_ATOM_UDEF_STEREO_COUNT>
0

>  <PUBCHEM_BOND_DEF_STEREO_COUNT>
0

>  <PUBCHEM_BOND_UDEF_STEREO_COUNT>
0

>  <PUBCHEM_ISOTOPIC_ATOM_COUNT>
0

>  <PUBCHEM_COMPONENT_COUNT>
1

>  <PUBCHEM_CACTVS_TAUTO_COUNT>
3

>  <PUBCHEM_CONFORMER_ID>
000CC0A200000002

>  <PUBCHEM_MMFF94_ENERGY>
52.3852

>  <PUBCHEM_FEATURE_SELFOVERLAP>
25.371

>  <PUBCHEM_SHAPE_FINGERPRINT>
11471102 20 18342174466816144132
11615757 297 17561085825458973986
12236239 1 16370441155103447330
12815109 37 18410573985156738883
13167823 11 18187079546640094714
13296908 3 18410856568567386275
1420 363 18272656744680693782
14252887 29 17346325882028491620
14386348 63 18411420617737146731
15196674 1 18410575097558543306
15375358 24 18409449184872644675
17834072 33 18261115209715337964
17834076 25 17022620879381145283
18186145 218 17530677732134486157
19489759 90 17748823016459577337
200 152 18059855060421433577
20279233 1 18408610257389764875
20645477 56 18114460068454788613
20645477 70 18270963436449620310
21079973 296 18333733549987550587
21267235 1 18411428322908527662
221490 88 18191312769369839034
22485316 2 18410291406526621843
23402539 116 18113613491276101006
23402655 69 18413388718028858484
23557571 272 17895189982806016093
23559900 14 18409725158054063632
26918003 58 18410009940065798010
2871803 45 18408322159895230626
3268164 11 16733254695228730535
33824 294 18410855439244695226
3545911 37 18409730655443260917
4214541 1 18409448068407903557
42788 4 18408040719320248484
4921388 177 16298679373007211075
5104073 3 18341331089668161714
542803 24 16515406265720334638
77779 3 18410013234337336445
9709674 26 18409737252656114959

>  <PUBCHEM_SHAPE_MULTIPOLES>
308.46
11.5
1.49
0.65
2.28
0.01
-0.01
1.42
0.42
-0.35
-0.05
-0.08
0.01
0.5

>  <PUBCHEM_SHAPE_SELFOVERLAP>
662.927

>  <PUBCHEM_SHAPE_VOLUME>
167.7

>  <PUBCHEM_COORDINATE_TYPE>
2
5
10

$$$$
