85795465
 OpenBabel01182520543D

 18 19  0  0  0  0  0  0  0  0999 V2000
    1.4380    2.0770   -0.0004 O   0  0  0  0  0  0  0  0  0  0  0  0
    1.9842   -0.1913   -0.0001 N   0  0  0  0  0  0  0  0  0  0  0  0
    0.3208   -1.8711    0.0003 N   0  0  0  0  0  0  0  0  0  0  0  0
   -1.9338   -1.2775   -0.0002 N   0  0  0  0  0  0  0  0  0  0  0  0
    3.3497    0.0589   -0.0004 N   0  0  0  0  0  0  0  0  0  0  0  0
   -0.3112    0.5026    0.0006 C   0  0  0  0  0  0  0  0  0  0  0  0
   -0.6491   -0.8510    0.0005 C   0  0  0  0  0  0  0  0  0  0  0  0
    1.1159    0.8942    0.0001 C   0  0  0  0  0  0  0  0  0  0  0  0
   -1.3266    1.4564    0.0005 C   0  0  0  0  0  0  0  0  0  0  0  0
    1.5605   -1.5041    0.0000 C   0  0  0  0  0  0  0  0  0  0  0  0
   -2.6502    1.0344   -0.0001 C   0  0  0  0  0  0  0  0  0  0  0  0
   -2.8982   -0.3284   -0.0007 C   0  0  0  0  0  0  0  0  0  0  0  0
   -1.1063    2.5196    0.0007 H   0  0  0  0  0  0  0  0  0  0  0  0
    2.3680   -2.2536   -0.0002 H   0  0  0  0  0  0  0  0  0  0  0  0
   -3.4641    1.7504   -0.0004 H   0  0  0  0  0  0  0  0  0  0  0  0
   -3.9154   -0.7065   -0.0014 H   0  0  0  0  0  0  0  0  0  0  0  0
    3.7468   -0.4031    0.8168 H   0  0  0  0  0  0  0  0  0  0  0  0
    3.7465   -0.4031   -0.8178 H   0  0  0  0  0  0  0  0  0  0  0  0
  1  8  2  0  0  0  0
  2  5  1  0  0  0  0
  2  8  1  0  0  0  0
  2 10  1  0  0  0  0
  3  7  1  0  0  0  0
  3 10  2  0  0  0  0
  4  7  1  0  0  0  0
  4 12  2  0  0  0  0
  5 17  1  0  0  0  0
  5 18  1  0  0  0  0
  6  7  2  0  0  0  0
  6  8  1  0  0  0  0
  6  9  1  0  0  0  0
  9 11  2  0  0  0  0
  9 13  1  0  0  0  0
 10 14  1  0  0  0  0
 11 12  1  0  0  0  0
 11 15  1  0  0  0  0
 12 16  1  0  0  0  0
M  END
>  <PUBCHEM_COMPOUND_CID>
85795465

>  <PUBCHEM_CONFORMER_RMSD>
0.4

>  <PUBCHEM_CONFORMER_DIVERSEORDER>
1

>  <PUBCHEM_MMFF94_PARTIAL_CHARGES>
18
1 -0.57
10 0.45
11 -0.15
12 0.16
13 0.15
14 0.06
15 0.15
16 0.15
17 0.36
18 0.36
2 -0.11
3 -0.63
4 -0.62
5 -0.73
6 0.09
7 0.49
8 0.54
9 -0.15

>  <PUBCHEM_EFFECTIVE_ROTOR_COUNT>
0

>  <PUBCHEM_PHARMACOPHORE_FEATURES>
5
1 1 acceptor
1 4 acceptor
1 5 donor
6 2 3 6 7 8 10 rings
6 4 6 7 9 11 12 rings

>  <PUBCHEM_HEAVY_ATOM_COUNT>
12

>  <PUBCHEM_ATOM_DEF_STEREO_COUNT>
0

>  <PUBCHEM_ATOM_UDEF_STEREO_COUNT>
0

>  <PUBCHEM_BOND_DEF_STEREO_COUNT>
0

>  <PUBCHEM_BOND_UDEF_STEREO_COUNT>
0

>  <PUBCHEM_ISOTOPIC_ATOM_COUNT>
0

>  <PUBCHEM_COMPONENT_COUNT>
1

>  <PUBCHEM_CACTVS_TAUTO_COUNT>
1

>  <PUBCHEM_CONFORMER_ID>
051D228900000001

>  <PUBCHEM_MMFF94_ENERGY>
30.5519

>  <PUBCHEM_FEATURE_SELFOVERLAP>
25.408

>  <PUBCHEM_SHAPE_FINGERPRINT>
11206711 2 18409167714132580677
11471102 20 18338513028755614725
12423570 1 17846503680974089638
12524768 44 18053949446188191167
12897270 3 18410009953119504901
13380535 76 18410007715331105107
14325111 11 18410855430100417920
15775835 57 18336835207886102621
16945 1 18410573972461773543
193761 8 17689999359153516132
19973954 147 18410858754642442897
20201158 50 18410290289914155215
21040471 1 18122343742207146016
2334 1 17978229683675943045
23402655 69 18196356049720317301
23463225 33 18262796255625358106
23552423 10 18335139834070586957
23559900 14 18343028775188620252
241688 4 17834397817391649450
2748010 2 18122063371047463095
5084963 1 18202003265155420705
528886 8 18410849941126841611
53812653 166 18342451526334470152
63268167 104 18338237042288114049
66348 1 18410012164901061709

>  <PUBCHEM_SHAPE_MULTIPOLES>
221.16
4.04
1.91
0.58
0.23
0.06
0
0.22
0
0.23
0
-0.04
0.01
0

>  <PUBCHEM_SHAPE_SELFOVERLAP>
483.244

>  <PUBCHEM_SHAPE_VOLUME>
118.6

>  <PUBCHEM_COORDINATE_TYPE>
2
5
10

$$$$
