85910361
 OpenBabel01182520543D

 17 17  0  0  0  0  0  0  0  0999 V2000
    1.3841    1.3263   -0.6182 O   0  0  0  0  0  0  0  0  0  0  0  0
   -2.7090    0.6352    0.1917 N   0  0  0  0  0  0  0  0  0  0  0  0
   -0.9650    2.2408    0.2311 N   0  0  0  0  0  0  0  0  0  0  0  0
    1.8843   -0.7603    0.2736 N   0  0  0  0  0  0  0  0  0  0  0  0
    3.0956   -0.4802    0.1956 N   0  3  0  0  0  0  0  0  0  0  0  0
    4.2082   -0.2362    0.1297 N   0  5  0  0  0  0  0  0  0  0  0  0
   -0.4164   -0.0800   -0.0872 C   0  0  0  0  0  0  0  0  0  0  0  0
   -1.3843    0.8921    0.1080 C   0  0  0  0  0  0  0  0  0  0  0  0
   -0.8350   -1.4008   -0.2042 C   0  0  0  0  0  0  0  0  0  0  0  0
   -2.1894   -1.7048   -0.1236 C   0  0  0  0  0  0  0  0  0  0  0  0
    1.0048    0.2277   -0.1699 C   0  0  0  0  0  0  0  0  0  0  0  0
   -3.0780   -0.6600    0.0734 C   0  0  0  0  0  0  0  0  0  0  0  0
   -0.1313   -2.2122   -0.3693 H   0  0  0  0  0  0  0  0  0  0  0  0
   -2.5391   -2.7267   -0.2145 H   0  0  0  0  0  0  0  0  0  0  0  0
   -4.1450   -0.8441    0.1428 H   0  0  0  0  0  0  0  0  0  0  0  0
   -0.0606    2.4310    0.6445 H   0  0  0  0  0  0  0  0  0  0  0  0
   -1.6956    2.9290    0.3675 H   0  0  0  0  0  0  0  0  0  0  0  0
  1 11  2  0  0  0  0
  2  8  1  0  0  0  0
  2 12  2  0  0  0  0
  3  8  1  0  0  0  0
  3 16  1  0  0  0  0
  3 17  1  0  0  0  0
  4  5  2  0  0  0  0
  4 11  1  0  0  0  0
  5  6  2  0  0  0  0
  7  8  2  0  0  0  0
  7  9  1  0  0  0  0
  7 11  1  0  0  0  0
  9 10  2  0  0  0  0
  9 13  1  0  0  0  0
 10 12  1  0  0  0  0
 10 14  1  0  0  0  0
 12 15  1  0  0  0  0
M  CHG  2   5   1   6  -1
M  END
>  <PUBCHEM_COMPOUND_CID>
85910361

>  <PUBCHEM_CONFORMER_RMSD>
0.6

>  <PUBCHEM_CONFORMER_DIVERSEORDER>
1
11
9
12
3
13
14
2
7
10
4
8
5
6

>  <PUBCHEM_MMFF94_PARTIAL_CHARGES>
17
1 -0.57
10 -0.15
11 0.69
12 0.16
13 0.15
14 0.15
15 0.15
16 0.4
17 0.4
2 -0.62
3 -0.9
4 -0.53
5 0.69
6 -0.37
7 0.09
8 0.41
9 -0.15

>  <PUBCHEM_EFFECTIVE_ROTOR_COUNT>
2

>  <PUBCHEM_PHARMACOPHORE_FEATURES>
6
1 1 acceptor
1 2 acceptor
1 3 cation
1 3 donor
1 4 donor
6 2 7 8 9 10 12 rings

>  <PUBCHEM_HEAVY_ATOM_COUNT>
12

>  <PUBCHEM_ATOM_DEF_STEREO_COUNT>
0

>  <PUBCHEM_ATOM_UDEF_STEREO_COUNT>
0

>  <PUBCHEM_BOND_DEF_STEREO_COUNT>
0

>  <PUBCHEM_BOND_UDEF_STEREO_COUNT>
0

>  <PUBCHEM_ISOTOPIC_ATOM_COUNT>
0

>  <PUBCHEM_COMPONENT_COUNT>
1

>  <PUBCHEM_CACTVS_TAUTO_COUNT>
4

>  <PUBCHEM_CONFORMER_ID>
051EE35900000001

>  <PUBCHEM_MMFF94_ENERGY>
38.4879

>  <PUBCHEM_FEATURE_SELFOVERLAP>
30.446

>  <PUBCHEM_SHAPE_FINGERPRINT>
10130415 120 18336828688389433067
13024252 1 15936411126472695443
14128692 85 18335702792497878844
14325111 11 18339923714716068234
16945 1 18339090302113679847
193761 8 17691125938081994399
20871998 184 18202283610624583815
23402539 116 18130497579358771287
23463225 33 18409169921719565558
23552423 10 18116433824331984727
23559900 14 18272083865079226370
2748010 2 18267862963908689919
369184 2 15554447383805270359
7364860 26 18197498643637518184
75552 356 18411981355813987602

>  <PUBCHEM_SHAPE_MULTIPOLES>
216.18
5.22
1.72
0.62
4.68
0.51
-0.02
-1.34
0.43
-0.87
-0.01
0
0.01
-0.26

>  <PUBCHEM_SHAPE_SELFOVERLAP>
455.497

>  <PUBCHEM_SHAPE_VOLUME>
119.6

>  <PUBCHEM_COORDINATE_TYPE>
2
5
10

$$$$
