87552729
 OpenBabel01182520543D

 18 18  0  0  0  0  0  0  0  0999 V2000
    2.3145    0.6276    0.0498 S   0  0  0  0  0  0  0  0  0  0  0  0
   -0.3671   -2.6205   -1.0338 O   0  0  0  0  0  0  0  0  0  0  0  0
    3.7025    0.5293   -0.3772 O   0  0  0  0  0  0  0  0  0  0  0  0
    2.0811    0.9174    1.4569 O   0  0  0  0  0  0  0  0  0  0  0  0
   -0.7770    1.8211   -0.4806 N   0  0  0  0  0  0  0  0  0  0  0  0
    1.1414    0.4745   -0.9547 N   0  0  0  0  0  0  0  0  0  0  0  0
    0.3949   -2.2703    1.1005 N   0  0  0  0  0  0  0  0  0  0  0  0
   -0.9027   -0.5529   -0.0411 C   0  0  0  0  0  0  0  0  0  0  0  0
   -0.2356    0.5823   -0.4725 C   0  0  0  0  0  0  0  0  0  0  0  0
   -2.2096   -0.4075    0.4111 C   0  0  0  0  0  0  0  0  0  0  0  0
   -2.8010    0.8510    0.4179 C   0  0  0  0  0  0  0  0  0  0  0  0
   -0.2925   -1.8754   -0.0423 C   0  0  0  0  0  0  0  0  0  0  0  0
   -2.0489    1.9234   -0.0340 C   0  0  0  0  0  0  0  0  0  0  0  0
   -2.7769   -1.2662    0.7604 H   0  0  0  0  0  0  0  0  0  0  0  0
   -3.8183    0.9882    0.7659 H   0  0  0  0  0  0  0  0  0  0  0  0
   -2.4640    2.9258   -0.0488 H   0  0  0  0  0  0  0  0  0  0  0  0
    0.4737   -1.6713    1.9162 H   0  0  0  0  0  0  0  0  0  0  0  0
    0.8446   -3.1783    1.1514 H   0  0  0  0  0  0  0  0  0  0  0  0
  1  3  2  0  0  0  0
  1  4  2  0  0  0  0
  1  6  2  0  0  0  0
  2 12  2  0  0  0  0
  5  9  1  0  0  0  0
  5 13  2  0  0  0  0
  6  9  1  0  0  0  0
  7 12  1  0  0  0  0
  7 17  1  0  0  0  0
  7 18  1  0  0  0  0
  8  9  2  0  0  0  0
  8 10  1  0  0  0  0
  8 12  1  0  0  0  0
 10 11  2  0  0  0  0
 10 14  1  0  0  0  0
 11 13  1  0  0  0  0
 11 15  1  0  0  0  0
 13 16  1  0  0  0  0
M  END
>  <PUBCHEM_COMPOUND_CID>
87552729

>  <PUBCHEM_CONFORMER_RMSD>
0.6

>  <PUBCHEM_CONFORMER_DIVERSEORDER>
1
5
9
12
8
4
11
2
10
7
3
6

>  <PUBCHEM_MMFF94_PARTIAL_CHARGES>
18
1 1.89
10 -0.15
11 -0.15
12 0.54
13 0.16
14 0.15
15 0.15
16 0.15
17 0.37
18 0.37
2 -0.57
3 -0.65
4 -0.65
5 -0.62
6 -0.99
7 -0.8
8 0.09
9 0.71

>  <PUBCHEM_EFFECTIVE_ROTOR_COUNT>
2

>  <PUBCHEM_PHARMACOPHORE_FEATURES>
4
1 2 acceptor
1 5 acceptor
1 7 donor
6 5 8 9 10 11 13 rings

>  <PUBCHEM_HEAVY_ATOM_COUNT>
13

>  <PUBCHEM_ATOM_DEF_STEREO_COUNT>
0

>  <PUBCHEM_ATOM_UDEF_STEREO_COUNT>
0

>  <PUBCHEM_BOND_DEF_STEREO_COUNT>
0

>  <PUBCHEM_BOND_UDEF_STEREO_COUNT>
0

>  <PUBCHEM_ISOTOPIC_ATOM_COUNT>
0

>  <PUBCHEM_COMPONENT_COUNT>
1

>  <PUBCHEM_CACTVS_TAUTO_COUNT>
2

>  <PUBCHEM_CONFORMER_ID>
0537F2D900000001

>  <PUBCHEM_MMFF94_ENERGY>
33.6808

>  <PUBCHEM_FEATURE_SELFOVERLAP>
20.297

>  <PUBCHEM_SHAPE_FINGERPRINT>
15076042 46 18188782775987217624
15775835 57 18412267211667909456
16945 1 18200027490020784637
20524608 308 18201722915666136374
20645476 183 17387156327540098006
20871998 184 18196666300101990094
21501502 16 18050000000721913017
257057 1 17334202923954617046
27216 239 16911122871600963560
2748010 2 17828497877337790517
43471831 8 18260548900654704354
4663303 62 17983586195152373095
5084963 1 18272662254643816457
528862 383 18117554020395709746
54338 74 17976524328361842669
5706482 22 18411691071806579475
7364860 26 17910678665925732703
81228 2 18051399961980022218

>  <PUBCHEM_SHAPE_MULTIPOLES>
238.83
3.91
2.43
0.99
2.16
1.53
-0.15
-2.15
-0.45
-0.5
0.15
0.32
0.15
0.02

>  <PUBCHEM_SHAPE_SELFOVERLAP>
488.45

>  <PUBCHEM_SHAPE_VOLUME>
138.7

>  <PUBCHEM_COORDINATE_TYPE>
2
5
10

$$$$
