87555284
 OpenBabel01182520543D

 18 18  0  0  0  0  0  0  0  0999 V2000
    3.3466    0.0256    0.2702 S   0  0  0  0  0  0  0  0  0  0  0  0
   -3.8556   -1.0406    0.4293 O   0  0  0  0  0  0  0  0  0  0  0  0
    4.7821    0.0343    0.0297 O   0  0  0  0  0  0  0  0  0  0  0  0
    2.9140    0.1292    1.6561 O   0  0  0  0  0  0  0  0  0  0  0  0
    0.2707    1.1473   -0.5361 N   0  0  0  0  0  0  0  0  0  0  0  0
    2.3253   -0.0433   -0.8987 N   0  0  0  0  0  0  0  0  0  0  0  0
   -3.8124    1.2480    0.2941 N   0  0  0  0  0  0  0  0  0  0  0  0
   -1.7772   -0.0448   -0.0564 C   0  0  0  0  0  0  0  0  0  0  0  0
   -1.0992   -1.2561   -0.1356 C   0  0  0  0  0  0  0  0  0  0  0  0
    0.2630   -1.2672   -0.4147 C   0  0  0  0  0  0  0  0  0  0  0  0
    0.8959   -0.0494   -0.6052 C   0  0  0  0  0  0  0  0  0  0  0  0
   -1.0530    1.1183   -0.2627 C   0  0  0  0  0  0  0  0  0  0  0  0
   -3.2001   -0.0014    0.2299 C   0  0  0  0  0  0  0  0  0  0  0  0
   -1.6117   -2.2023    0.0158 H   0  0  0  0  0  0  0  0  0  0  0  0
    0.7990   -2.2086   -0.4783 H   0  0  0  0  0  0  0  0  0  0  0  0
   -1.4793    2.1128   -0.2247 H   0  0  0  0  0  0  0  0  0  0  0  0
   -3.3512    2.1374    0.1504 H   0  0  0  0  0  0  0  0  0  0  0  0
   -4.8049    1.3075    0.4991 H   0  0  0  0  0  0  0  0  0  0  0  0
  1  3  2  0  0  0  0
  1  4  2  0  0  0  0
  1  6  2  0  0  0  0
  2 13  2  0  0  0  0
  5 11  2  0  0  0  0
  5 12  1  0  0  0  0
  6 11  1  0  0  0  0
  7 13  1  0  0  0  0
  7 17  1  0  0  0  0
  7 18  1  0  0  0  0
  8  9  1  0  0  0  0
  8 12  2  0  0  0  0
  8 13  1  0  0  0  0
  9 10  2  0  0  0  0
  9 14  1  0  0  0  0
 10 11  1  0  0  0  0
 10 15  1  0  0  0  0
 12 16  1  0  0  0  0
M  END
>  <PUBCHEM_COMPOUND_CID>
87555284

>  <PUBCHEM_CONFORMER_RMSD>
0.6

>  <PUBCHEM_CONFORMER_DIVERSEORDER>
1
2
6
5
3
4

>  <PUBCHEM_MMFF94_PARTIAL_CHARGES>
18
1 1.89
10 -0.15
11 0.71
12 0.16
13 0.54
14 0.15
15 0.15
16 0.15
17 0.37
18 0.37
2 -0.57
3 -0.65
4 -0.65
5 -0.62
6 -0.99
7 -0.8
8 0.09
9 -0.15

>  <PUBCHEM_EFFECTIVE_ROTOR_COUNT>
2

>  <PUBCHEM_PHARMACOPHORE_FEATURES>
4
1 2 acceptor
1 7 donor
3 5 6 11 cation
6 5 8 9 10 11 12 rings

>  <PUBCHEM_HEAVY_ATOM_COUNT>
13

>  <PUBCHEM_ATOM_DEF_STEREO_COUNT>
0

>  <PUBCHEM_ATOM_UDEF_STEREO_COUNT>
0

>  <PUBCHEM_BOND_DEF_STEREO_COUNT>
0

>  <PUBCHEM_BOND_UDEF_STEREO_COUNT>
0

>  <PUBCHEM_ISOTOPIC_ATOM_COUNT>
0

>  <PUBCHEM_COMPONENT_COUNT>
1

>  <PUBCHEM_CACTVS_TAUTO_COUNT>
2

>  <PUBCHEM_CONFORMER_ID>
0537FCD400000001

>  <PUBCHEM_MMFF94_ENERGY>
30.0117

>  <PUBCHEM_FEATURE_SELFOVERLAP>
20.297

>  <PUBCHEM_SHAPE_FINGERPRINT>
10130415 120 17967536791356781972
10857977 72 18410857668015652101
11132069 177 18410862031776303965
11401426 45 18411134732329975349
12119455 92 17131829846230071156
12251169 10 18411134775068709924
124424 183 17603301562081687669
13214271 11 18342457036946153613
15219456 202 18059862705637488982
16945 1 18410017641221780207
17846911 113 18343017770248206352
18186145 218 15913333489417085166
19026448 4 16917077641745145695
19026448 5 16515694355020553783
200 152 15140675882606694548
20645464 45 17918276458582184647
20645477 70 14852149728883970146
21119208 17 13110966431242791640
21501925 9 18335984263506773743
22485316 2 12973600049590599200
23380061 330 18412263960746931463
23402539 116 18272926124533484175
23559900 14 18270128915982760734
2748010 2 18121226372427087687
42 15 18261110738723051786
449060 50 17632299003457384612
53812653 166 18272369741611529281
7364860 26 17914056399906376534

>  <PUBCHEM_SHAPE_MULTIPOLES>
238.83
7.31
1.22
0.9
2.62
0.06
-0.2
-0.56
-1.81
-0.82
0.08
0.59
-0.03
0.12

>  <PUBCHEM_SHAPE_SELFOVERLAP>
487.993

>  <PUBCHEM_SHAPE_VOLUME>
138.7

>  <PUBCHEM_COORDINATE_TYPE>
2
5
10

$$$$
