87574485
 OpenBabel01182520543D

 26 26  0  0  0  0  0  0  0  0999 V2000
    3.6837   -1.5129    0.4904 Cl  0  0  0  0  0  0  0  0  0  0  0  0
   -3.4291   -1.2779   -0.2522 O   0  0  0  0  0  0  0  0  0  0  0  0
    2.8207   -0.2307   -0.2353 N   0  0  0  0  0  0  0  0  0  0  0  0
    0.7504    0.9307   -0.4396 N   0  0  0  0  0  0  0  0  0  0  0  0
   -3.3836    0.9800    0.2740 N   0  0  0  0  0  0  0  0  0  0  0  0
    1.4045   -0.2253   -0.1877 C   0  0  0  0  0  0  0  0  0  0  0  0
    3.5956    0.9444   -0.5412 C   0  0  0  0  0  0  0  0  0  0  0  0
   -1.3222   -0.2626   -0.0846 C   0  0  0  0  0  0  0  0  0  0  0  0
    0.7756   -1.4215    0.1182 C   0  0  0  0  0  0  0  0  0  0  0  0
   -0.6140   -1.4321    0.1687 C   0  0  0  0  0  0  0  0  0  0  0  0
   -0.5995    0.8817   -0.3813 C   0  0  0  0  0  0  0  0  0  0  0  0
    3.9056    1.7111    0.7301 C   0  0  0  0  0  0  0  0  0  0  0  0
   -2.7737   -0.2413   -0.0394 C   0  0  0  0  0  0  0  0  0  0  0  0
   -4.8141    1.1564    0.3802 C   0  0  0  0  0  0  0  0  0  0  0  0
    4.5366    0.6601   -1.0289 H   0  0  0  0  0  0  0  0  0  0  0  0
    3.0767    1.5935   -1.2564 H   0  0  0  0  0  0  0  0  0  0  0  0
    1.2830   -2.3612    0.2988 H   0  0  0  0  0  0  0  0  0  0  0  0
   -1.1279   -2.3600    0.4051 H   0  0  0  0  0  0  0  0  0  0  0  0
   -1.0716    1.8294   -0.6186 H   0  0  0  0  0  0  0  0  0  0  0  0
    2.9898    2.0084    1.2518 H   0  0  0  0  0  0  0  0  0  0  0  0
    4.5113    1.1225    1.4266 H   0  0  0  0  0  0  0  0  0  0  0  0
    4.4665    2.6207    0.4919 H   0  0  0  0  0  0  0  0  0  0  0  0
   -2.8130    1.7818    0.5203 H   0  0  0  0  0  0  0  0  0  0  0  0
   -5.0589    2.1827    0.0973 H   0  0  0  0  0  0  0  0  0  0  0  0
   -5.1052    0.9806    1.4187 H   0  0  0  0  0  0  0  0  0  0  0  0
   -5.3368    0.4522   -0.2717 H   0  0  0  0  0  0  0  0  0  0  0  0
  1  3  1  0  0  0  0
  2 13  2  0  0  0  0
  3  6  1  0  0  0  0
  3  7  1  0  0  0  0
  4  6  2  0  0  0  0
  4 11  1  0  0  0  0
  5 13  1  0  0  0  0
  5 14  1  0  0  0  0
  5 23  1  0  0  0  0
  6  9  1  0  0  0  0
  7 12  1  0  0  0  0
  7 15  1  0  0  0  0
  7 16  1  0  0  0  0
  8 10  1  0  0  0  0
  8 11  2  0  0  0  0
  8 13  1  0  0  0  0
  9 10  2  0  0  0  0
  9 17  1  0  0  0  0
 10 18  1  0  0  0  0
 11 19  1  0  0  0  0
 12 20  1  0  0  0  0
 12 21  1  0  0  0  0
 12 22  1  0  0  0  0
 14 24  1  0  0  0  0
 14 25  1  0  0  0  0
 14 26  1  0  0  0  0
M  END
>  <PUBCHEM_COMPOUND_CID>
87574485

>  <PUBCHEM_CONFORMER_RMSD>
0.6

>  <PUBCHEM_CONFORMER_DIVERSEORDER>
1
16
14
23
5
12
2
19
30
27
37
8
18
25
35
10
24
20
26
7
21
17
3
22
9
33
36
15
6
32
34
29
31
13
28
4
11

>  <PUBCHEM_MMFF94_PARTIAL_CHARGES>
17
1 -0.04
10 -0.15
11 0.16
13 0.54
14 0.3
17 0.15
18 0.15
19 0.15
2 -0.57
23 0.37
3 -0.43
4 -0.62
5 -0.73
6 0.41
7 0.37
8 0.09
9 -0.15

>  <PUBCHEM_EFFECTIVE_ROTOR_COUNT>
4

>  <PUBCHEM_PHARMACOPHORE_FEATURES>
4
1 2 acceptor
1 5 donor
3 3 4 6 cation
6 4 6 8 9 10 11 rings

>  <PUBCHEM_HEAVY_ATOM_COUNT>
14

>  <PUBCHEM_ATOM_DEF_STEREO_COUNT>
0

>  <PUBCHEM_ATOM_UDEF_STEREO_COUNT>
0

>  <PUBCHEM_BOND_DEF_STEREO_COUNT>
0

>  <PUBCHEM_BOND_UDEF_STEREO_COUNT>
0

>  <PUBCHEM_ISOTOPIC_ATOM_COUNT>
0

>  <PUBCHEM_COMPONENT_COUNT>
1

>  <PUBCHEM_CACTVS_TAUTO_COUNT>
2

>  <PUBCHEM_CONFORMER_ID>
053847D500000001

>  <PUBCHEM_MMFF94_ENERGY>
42.4016

>  <PUBCHEM_FEATURE_SELFOVERLAP>
20.297

>  <PUBCHEM_SHAPE_FINGERPRINT>
11132069 177 18260826007754871037
11471102 20 18335980891540630701
11543360 7 16487250019053460461
11806522 49 18265891548319236583
12346645 44 18411138026306140561
13675066 3 18040722441749590473
13760787 5 18040154002479961415
14325111 11 18410012147647424022
14897335 6 18337950194571228926
15196674 1 18410012147599847239
15536298 74 18411699885501554870
15775835 57 18411141337462194605
16945 1 16877660171185059174
17834072 33 18201714064112741431
18186145 218 18335420149443083734
19026448 4 17275109456808042510
19026448 5 18060413620928977367
20645477 70 18340768148036123326
212847 35 18341613689821042088
23402539 116 18201431484981321566
23402655 69 18273215308976640372
23463225 33 18261392217767895950
23559900 14 18202567268040506710
2748010 2 17969774186119045796
449060 62 18335424582150026332
5104073 3 18409450288805672251
53655031 270 18336828572156251723
53812653 166 18411980282072339136
633830 44 18343865506708874382
7364860 26 18412824669228791786

>  <PUBCHEM_SHAPE_MULTIPOLES>
269.17
8.42
1.76
0.73
3.22
0.08
0.03
-2.77
1.3
-0.84
0.23
-0.25
-0.09
-0.25

>  <PUBCHEM_SHAPE_SELFOVERLAP>
538.389

>  <PUBCHEM_SHAPE_VOLUME>
160.3

>  <PUBCHEM_COORDINATE_TYPE>
2
5
10

$$$$
