87697460
 OpenBabel01182520543D

 19 19  0  0  0  0  0  0  0  0999 V2000
   -4.3315    0.5756    0.0022 S   0  0  0  0  0  0  0  0  0  0  0  0
   -2.2040   -1.4433   -0.0036 O   0  0  0  0  0  0  0  0  0  0  0  0
    1.7053    1.2731   -0.0010 N   0  0  0  0  0  0  0  0  0  0  0  0
    3.8853    0.3117   -0.0001 N   0  0  0  0  0  0  0  0  0  0  0  0
   -0.2319   -0.1735    0.0004 C   0  0  0  0  0  0  0  0  0  0  0  0
    0.5941   -1.2919    0.0015 C   0  0  0  0  0  0  0  0  0  0  0  0
   -1.6779   -0.3103    0.0006 C   0  0  0  0  0  0  0  0  0  0  0  0
    0.3678    1.0756   -0.0008 C   0  0  0  0  0  0  0  0  0  0  0  0
    1.9751   -1.1294    0.0014 C   0  0  0  0  0  0  0  0  0  0  0  0
    2.4761    0.1625    0.0000 C   0  0  0  0  0  0  0  0  0  0  0  0
   -2.5585    0.9499   -0.0005 C   0  0  0  0  0  0  0  0  0  0  0  0
    0.1852   -2.2986    0.0024 H   0  0  0  0  0  0  0  0  0  0  0  0
   -0.1979    2.0007   -0.0018 H   0  0  0  0  0  0  0  0  0  0  0  0
    2.6261   -1.9976    0.0016 H   0  0  0  0  0  0  0  0  0  0  0  0
   -2.3447    1.5365   -0.8986 H   0  0  0  0  0  0  0  0  0  0  0  0
   -2.3429    1.5395    0.8951 H   0  0  0  0  0  0  0  0  0  0  0  0
    4.4472   -0.4189    0.4192 H   0  0  0  0  0  0  0  0  0  0  0  0
    4.2469    1.2574    0.0052 H   0  0  0  0  0  0  0  0  0  0  0  0
   -4.7558    1.8477    0.0005 H   0  0  0  0  0  0  0  0  0  0  0  0
  1 11  1  0  0  0  0
  1 19  1  0  0  0  0
  2  7  2  0  0  0  0
  3  8  1  0  0  0  0
  3 10  2  0  0  0  0
  4 10  1  0  0  0  0
  4 17  1  0  0  0  0
  4 18  1  0  0  0  0
  5  6  1  0  0  0  0
  5  7  1  0  0  0  0
  5  8  2  0  0  0  0
  6  9  2  0  0  0  0
  6 12  1  0  0  0  0
  7 11  1  0  0  0  0
  8 13  1  0  0  0  0
  9 10  1  0  0  0  0
  9 14  1  0  0  0  0
 11 15  1  0  0  0  0
 11 16  1  0  0  0  0
M  END
>  <PUBCHEM_COMPOUND_CID>
87697460

>  <PUBCHEM_CONFORMER_RMSD>
0.4

>  <PUBCHEM_CONFORMER_DIVERSEORDER>
1
17
27
24
5
13
18
12
25
15
2
16
26
23
6
11
19
9
20
28
14
8
22
7
21
10
3
4

>  <PUBCHEM_MMFF94_PARTIAL_CHARGES>
17
1 -0.41
10 0.41
11 0.29
12 0.15
13 0.15
14 0.15
17 0.4
18 0.4
19 0.18
2 -0.57
3 -0.62
4 -0.9
5 0.09
6 -0.15
7 0.42
8 0.16
9 -0.15

>  <PUBCHEM_EFFECTIVE_ROTOR_COUNT>
2

>  <PUBCHEM_PHARMACOPHORE_FEATURES>
4
1 2 acceptor
1 4 donor
3 3 4 10 cation
6 3 5 6 8 9 10 rings

>  <PUBCHEM_HEAVY_ATOM_COUNT>
11

>  <PUBCHEM_ATOM_DEF_STEREO_COUNT>
0

>  <PUBCHEM_ATOM_UDEF_STEREO_COUNT>
0

>  <PUBCHEM_BOND_DEF_STEREO_COUNT>
0

>  <PUBCHEM_BOND_UDEF_STEREO_COUNT>
0

>  <PUBCHEM_ISOTOPIC_ATOM_COUNT>
0

>  <PUBCHEM_COMPONENT_COUNT>
1

>  <PUBCHEM_CACTVS_TAUTO_COUNT>
20

>  <PUBCHEM_CONFORMER_ID>
053A283400000001

>  <PUBCHEM_MMFF94_ENERGY>
35.6824

>  <PUBCHEM_FEATURE_SELFOVERLAP>
20.297

>  <PUBCHEM_SHAPE_FINGERPRINT>
11062470 55 17632857512309230737
11471102 20 18410570648199297589
12932764 1 17168412831295150839
13380535 76 18410856551430059383
14144814 61 18339644443205254153
14325111 11 18410855503098972736
14897335 6 18412259532561744079
15775835 57 18409169913203250109
16945 1 18410573955128956036
17844478 74 17822579313466641373
20201158 50 18410575063336071939
20645477 70 18267580213643710367
21040471 1 18266740366931976546
23235685 24 18410849954001291297
23402539 116 18131060516390737621
23402655 69 18270390599855802637
23552423 10 18261674873522807975
2748010 2 18267304428933930348
528886 8 18411414012082596914
53812653 166 18341608230927944000

>  <PUBCHEM_SHAPE_MULTIPOLES>
214.39
6.28
1.39
0.6
3.05
0.19
0
-1.26
0
-0.08
0
0.06
0
0

>  <PUBCHEM_SHAPE_SELFOVERLAP>
432.176

>  <PUBCHEM_SHAPE_VOLUME>
127.8

>  <PUBCHEM_COORDINATE_TYPE>
2
5
10

$$$$
