87872956
 OpenBabel01182520543D

 23 23  0  0  0  0  0  0  0  0999 V2000
    2.0415    0.6502   -0.3300 O   0  0  0  0  0  0  0  0  0  0  0  0
   -1.3018   -2.4377    1.0233 O   0  0  0  0  0  0  0  0  0  0  0  0
    3.2022   -1.1482    0.5500 O   0  0  0  0  0  0  0  0  0  0  0  0
    0.9036   -0.0876   -0.1082 N   0  0  0  0  0  0  0  0  0  0  0  0
   -0.4419    1.8611    0.0048 N   0  0  0  0  0  0  0  0  0  0  0  0
   -1.4114   -2.3904   -1.2666 N   0  0  0  0  0  0  0  0  0  0  0  0
   -1.4881   -0.3184    0.0128 C   0  0  0  0  0  0  0  0  0  0  0  0
   -0.3790    0.5111   -0.0286 C   0  0  0  0  0  0  0  0  0  0  0  0
   -2.7426    0.2759    0.0936 C   0  0  0  0  0  0  0  0  0  0  0  0
   -2.8480    1.6620    0.1300 C   0  0  0  0  0  0  0  0  0  0  0  0
   -1.3881   -1.7710   -0.0215 C   0  0  0  0  0  0  0  0  0  0  0  0
   -1.6780    2.4028    0.0835 C   0  0  0  0  0  0  0  0  0  0  0  0
    3.1608   -0.0275    0.0595 C   0  0  0  0  0  0  0  0  0  0  0  0
    4.3706    0.8177   -0.2027 C   0  0  0  0  0  0  0  0  0  0  0  0
   -3.6444   -0.3295    0.1296 H   0  0  0  0  0  0  0  0  0  0  0  0
   -3.8153    2.1470    0.1931 H   0  0  0  0  0  0  0  0  0  0  0  0
    0.9402   -1.0322   -0.4786 H   0  0  0  0  0  0  0  0  0  0  0  0
   -1.7060    3.4871    0.1091 H   0  0  0  0  0  0  0  0  0  0  0  0
   -1.4883   -1.8624   -2.1302 H   0  0  0  0  0  0  0  0  0  0  0  0
   -1.3510   -3.3998   -1.3485 H   0  0  0  0  0  0  0  0  0  0  0  0
    4.4472    1.0345   -1.2711 H   0  0  0  0  0  0  0  0  0  0  0  0
    4.3086    1.7433    0.3751 H   0  0  0  0  0  0  0  0  0  0  0  0
    5.2673    0.2732    0.1070 H   0  0  0  0  0  0  0  0  0  0  0  0
  1  4  1  0  0  0  0
  1 13  1  0  0  0  0
  2 11  2  0  0  0  0
  3 13  2  0  0  0  0
  4  8  1  0  0  0  0
  4 17  1  0  0  0  0
  5  8  1  0  0  0  0
  5 12  2  0  0  0  0
  6 11  1  0  0  0  0
  6 19  1  0  0  0  0
  6 20  1  0  0  0  0
  7  8  2  0  0  0  0
  7  9  1  0  0  0  0
  7 11  1  0  0  0  0
  9 10  2  0  0  0  0
  9 15  1  0  0  0  0
 10 12  1  0  0  0  0
 10 16  1  0  0  0  0
 12 18  1  0  0  0  0
 13 14  1  0  0  0  0
 14 21  1  0  0  0  0
 14 22  1  0  0  0  0
 14 23  1  0  0  0  0
M  END
>  <PUBCHEM_COMPOUND_CID>
87872956

>  <PUBCHEM_CONFORMER_RMSD>
0.6

>  <PUBCHEM_CONFORMER_DIVERSEORDER>
2
28
38
37
23
46
65
48
71
66
50
58
43
33
47
68
56
64
40
69
26
31
4
52
20
11
59
5
27
53
9
32
25
44
13
72
70
24
3
67
12
36
8
62
34
57
14
7
39
49
63
51
73
19
16
41
30
55
45
21
60
6
61
17
42
15
29
22
54
1
10
18
35

>  <PUBCHEM_MMFF94_PARTIAL_CHARGES>
20
1 -0.13
10 -0.15
11 0.54
12 0.16
13 0.66
14 0.06
15 0.15
16 0.15
17 0.4
18 0.15
19 0.37
2 -0.57
20 0.37
3 -0.57
4 -0.52
5 -0.62
6 -0.8
7 0.09
8 0.41
9 -0.15

>  <PUBCHEM_EFFECTIVE_ROTOR_COUNT>
4

>  <PUBCHEM_PHARMACOPHORE_FEATURES>
6
1 2 acceptor
1 3 acceptor
1 4 donor
1 5 acceptor
1 6 donor
6 5 7 8 9 10 12 rings

>  <PUBCHEM_HEAVY_ATOM_COUNT>
14

>  <PUBCHEM_ATOM_DEF_STEREO_COUNT>
0

>  <PUBCHEM_ATOM_UDEF_STEREO_COUNT>
0

>  <PUBCHEM_BOND_DEF_STEREO_COUNT>
0

>  <PUBCHEM_BOND_UDEF_STEREO_COUNT>
0

>  <PUBCHEM_ISOTOPIC_ATOM_COUNT>
0

>  <PUBCHEM_COMPONENT_COUNT>
1

>  <PUBCHEM_CACTVS_TAUTO_COUNT>
7

>  <PUBCHEM_CONFORMER_ID>
053CD5BC00000002

>  <PUBCHEM_MMFF94_ENERGY>
42.6531

>  <PUBCHEM_FEATURE_SELFOVERLAP>
30.447

>  <PUBCHEM_SHAPE_FINGERPRINT>
12500047 106 18340480093591261168
13024252 1 16660646271571877417
13380535 76 18341049597205723462
14144814 61 18335984173275699712
14325111 11 18337672988602281784
15279307 12 18187646873529064130
15669948 3 18411978079054562742
16945 1 18262817214881068205
20510252 161 18271811168230257169
20524608 308 18272931622070731671
20645476 183 17750540444968971174
20871998 184 18343027721898544895
21524375 3 18195523697341561777
23402539 116 18343574153766273285
23559900 14 18343581812146648776
257057 1 17838886389213567111
2748010 2 18122640352938745405
3071541 12 17332531168333339677
3312278 4 18262240035780006178
43471831 8 18190461550197415067
5706482 22 18267858394137346579
6333449 129 18341892987117432133
6338986 31 17839727506897652927
69090 78 18411133597989279405
7364860 26 17405989557401411517
75552 356 18410014359713901996
81228 2 18265882721976632145
9709674 26 18341898467902046414

>  <PUBCHEM_SHAPE_MULTIPOLES>
255.56
5.86
2.6
0.76
7.99
0.77
0.05
-1.51
-0.13
-2.11
0.03
-0.14
0.38
-0.33

>  <PUBCHEM_SHAPE_SELFOVERLAP>
527.859

>  <PUBCHEM_SHAPE_VOLUME>
145.4

>  <PUBCHEM_COORDINATE_TYPE>
2
5
10

$$$$
