88257803
 OpenBabel01182520543D

 15 15  0  0  0  0  0  0  0  0999 V2000
    4.1497    0.6571    0.2203 I   0  0  0  0  0  0  0  0  0  0  0  0
    1.6991   -1.5193   -0.4208 O   0  0  0  0  0  0  0  0  0  0  0  0
   -2.0122    1.4017   -0.1802 N   0  0  0  0  0  0  0  0  0  0  0  0
    2.0982    0.6751    0.2170 N   0  0  0  0  0  0  0  0  0  0  0  0
   -0.1706   -0.1585   -0.0410 C   0  0  0  0  0  0  0  0  0  0  0  0
   -1.0602   -1.1976    0.2089 C   0  0  0  0  0  0  0  0  0  0  0  0
   -0.6926    1.1114   -0.2269 C   0  0  0  0  0  0  0  0  0  0  0  0
    1.2602   -0.3979   -0.1063 C   0  0  0  0  0  0  0  0  0  0  0  0
   -2.4253   -0.9385    0.2644 C   0  0  0  0  0  0  0  0  0  0  0  0
   -2.8463    0.3664    0.0648 C   0  0  0  0  0  0  0  0  0  0  0  0
   -0.7087   -2.2137    0.3663 H   0  0  0  0  0  0  0  0  0  0  0  0
   -0.0740    1.9733   -0.4542 H   0  0  0  0  0  0  0  0  0  0  0  0
   -3.1371   -1.7326    0.4586 H   0  0  0  0  0  0  0  0  0  0  0  0
   -3.9006    0.6209    0.0983 H   0  0  0  0  0  0  0  0  0  0  0  0
    1.7079    1.5591    0.5279 H   0  0  0  0  0  0  0  0  0  0  0  0
  1  4  1  0  0  0  0
  2  8  2  0  0  0  0
  3  7  1  0  0  0  0
  3 10  2  0  0  0  0
  4  8  1  0  0  0  0
  4 15  1  0  0  0  0
  5  6  1  0  0  0  0
  5  7  2  0  0  0  0
  5  8  1  0  0  0  0
  6  9  2  0  0  0  0
  6 11  1  0  0  0  0
  7 12  1  0  0  0  0
  9 10  1  0  0  0  0
  9 13  1  0  0  0  0
 10 14  1  0  0  0  0
M  END
>  <PUBCHEM_COMPOUND_CID>
88257803

>  <PUBCHEM_CONFORMER_RMSD>
0.4

>  <PUBCHEM_CONFORMER_DIVERSEORDER>
1
8
16
15
7
3
13
6
4
14
5
2
9
11
12
10

>  <PUBCHEM_MMFF94_PARTIAL_CHARGES>
15
1 0.04
10 0.16
11 0.15
12 0.15
13 0.15
14 0.15
15 0.37
2 -0.57
3 -0.62
4 -0.47
5 0.09
6 -0.15
7 0.16
8 0.54
9 -0.15

>  <PUBCHEM_EFFECTIVE_ROTOR_COUNT>
2

>  <PUBCHEM_PHARMACOPHORE_FEATURES>
4
1 2 acceptor
1 3 acceptor
1 4 donor
6 3 5 6 7 9 10 rings

>  <PUBCHEM_HEAVY_ATOM_COUNT>
10

>  <PUBCHEM_ATOM_DEF_STEREO_COUNT>
0

>  <PUBCHEM_ATOM_UDEF_STEREO_COUNT>
0

>  <PUBCHEM_BOND_DEF_STEREO_COUNT>
0

>  <PUBCHEM_BOND_UDEF_STEREO_COUNT>
0

>  <PUBCHEM_ISOTOPIC_ATOM_COUNT>
0

>  <PUBCHEM_COMPONENT_COUNT>
1

>  <PUBCHEM_CACTVS_TAUTO_COUNT>
2

>  <PUBCHEM_CONFORMER_ID>
0542B50B00000001

>  <PUBCHEM_MMFF94_ENERGY>
25.6278

>  <PUBCHEM_FEATURE_SELFOVERLAP>
20.297

>  <PUBCHEM_SHAPE_FINGERPRINT>
10608611 8 18411697656371538060
10857977 72 18335979873791689089
11062470 55 14056991741786936636
13024252 1 14562525180878657781
13380535 76 18410571790687270766
14325111 11 18411135853379846792
14390081 3 18342175557379225632
15219456 202 18342179929840581846
16945 1 18337399330486739685
19973954 147 18340209578912075968
20201158 50 18413107268595085242
20645464 45 18343024393108810862
20871998 184 18270406121356115159
21040471 1 18118125775411746477
23402539 116 18335973281186026039
23402655 69 18270667668317445509
23552423 10 18187090516002340719
2748010 2 18336835169331565479
369184 2 16805316708450388801
6333449 129 18411979182618454197
7364860 26 18268710502949184854

>  <PUBCHEM_SHAPE_MULTIPOLES>
201.9
6
1.43
0.67
5.71
0.06
-0.02
-1.15
-0.61
-0.35
0.09
0.15
0.01
0.28

>  <PUBCHEM_SHAPE_SELFOVERLAP>
395.723

>  <PUBCHEM_SHAPE_VOLUME>
125.3

>  <PUBCHEM_COORDINATE_TYPE>
2
5
10

$$$$
