88386261
 OpenBabel01182520543D

 37 37  0  0  0  0  0  0  0  0999 V2000
    0.3891   -0.8463   -1.1648 O   0  0  0  0  0  0  0  0  0  0  0  0
    0.1538    0.7352    0.5163 N   0  0  0  0  0  0  0  0  0  0  0  0
    4.5164   -1.0607   -0.4928 N   0  0  0  0  0  0  0  0  0  0  0  0
    6.4951    0.1393    0.0745 N   0  0  0  0  0  0  0  0  0  0  0  0
   -3.9432   -0.7089    0.3427 C   0  0  0  0  0  0  0  0  0  0  0  0
   -1.2817    0.7516    0.5380 C   0  0  0  0  0  0  0  0  0  0  0  0
   -5.1188    0.9706   -1.1971 C   0  0  0  0  0  0  0  0  0  0  0  0
   -4.1784    0.5418   -0.1062 C   0  0  0  0  0  0  0  0  0  0  0  0
   -2.9482   -0.9000    1.3992 C   0  0  0  0  0  0  0  0  0  0  0  0
   -1.7660   -0.2725    1.5144 C   0  0  0  0  0  0  0  0  0  0  0  0
    2.3626    0.0049   -0.2270 C   0  0  0  0  0  0  0  0  0  0  0  0
    0.8840   -0.0751   -0.3468 C   0  0  0  0  0  0  0  0  0  0  0  0
   -4.6635   -1.9278   -0.1718 C   0  0  0  0  0  0  0  0  0  0  0  0
   -6.5034    1.2755   -0.6489 C   0  0  0  0  0  0  0  0  0  0  0  0
    2.9827    1.1584    0.2404 C   0  0  0  0  0  0  0  0  0  0  0  0
    3.1671   -1.0673   -0.5774 C   0  0  0  0  0  0  0  0  0  0  0  0
    4.3687    1.2036    0.3415 C   0  0  0  0  0  0  0  0  0  0  0  0
    5.0836    0.0777   -0.0343 C   0  0  0  0  0  0  0  0  0  0  0  0
   -1.5661    1.7556    0.8672 H   0  0  0  0  0  0  0  0  0  0  0  0
   -1.6244    0.5781   -0.4853 H   0  0  0  0  0  0  0  0  0  0  0  0
   -4.7096    1.8655   -1.6809 H   0  0  0  0  0  0  0  0  0  0  0  0
   -5.1858    0.2096   -1.9818 H   0  0  0  0  0  0  0  0  0  0  0  0
   -3.7107    1.3936    0.3814 H   0  0  0  0  0  0  0  0  0  0  0  0
   -3.2080   -1.6435    2.1500 H   0  0  0  0  0  0  0  0  0  0  0  0
   -1.1383   -0.5133    2.3694 H   0  0  0  0  0  0  0  0  0  0  0  0
    0.6287    1.2975    1.2148 H   0  0  0  0  0  0  0  0  0  0  0  0
   -5.1347   -2.4669    0.6575 H   0  0  0  0  0  0  0  0  0  0  0  0
   -3.9550   -2.6040   -0.6620 H   0  0  0  0  0  0  0  0  0  0  0  0
   -5.4532   -1.6949   -0.8904 H   0  0  0  0  0  0  0  0  0  0  0  0
   -6.9556    0.3898   -0.1903 H   0  0  0  0  0  0  0  0  0  0  0  0
   -6.4647    2.0680    0.1063 H   0  0  0  0  0  0  0  0  0  0  0  0
   -7.1629    1.6109   -1.4558 H   0  0  0  0  0  0  0  0  0  0  0  0
    2.4230    2.0492    0.5091 H   0  0  0  0  0  0  0  0  0  0  0  0
    2.7475   -1.9986   -0.9456 H   0  0  0  0  0  0  0  0  0  0  0  0
    4.8603    2.1021    0.7004 H   0  0  0  0  0  0  0  0  0  0  0  0
    7.0137   -0.6835   -0.2071 H   0  0  0  0  0  0  0  0  0  0  0  0
    6.9459    1.0421   -0.0091 H   0  0  0  0  0  0  0  0  0  0  0  0
  1 12  2  0  0  0  0
  2  6  1  0  0  0  0
  2 12  1  0  0  0  0
  2 26  1  0  0  0  0
  3 16  1  0  0  0  0
  3 18  2  0  0  0  0
  4 18  1  0  0  0  0
  4 36  1  0  0  0  0
  4 37  1  0  0  0  0
  5  8  2  0  0  0  0
  5  9  1  0  0  0  0
  5 13  1  0  0  0  0
  6 10  1  0  0  0  0
  6 19  1  0  0  0  0
  6 20  1  0  0  0  0
  7  8  1  0  0  0  0
  7 14  1  0  0  0  0
  7 21  1  0  0  0  0
  7 22  1  0  0  0  0
  8 23  1  0  0  0  0
  9 10  2  0  0  0  0
  9 24  1  0  0  0  0
 10 25  1  0  0  0  0
 11 12  1  0  0  0  0
 11 15  1  0  0  0  0
 11 16  2  0  0  0  0
 13 27  1  0  0  0  0
 13 28  1  0  0  0  0
 13 29  1  0  0  0  0
 14 30  1  0  0  0  0
 14 31  1  0  0  0  0
 14 32  1  0  0  0  0
 15 17  2  0  0  0  0
 15 33  1  0  0  0  0
 16 34  1  0  0  0  0
 17 18  1  0  0  0  0
 17 35  1  0  0  0  0
M  END
>  <PUBCHEM_COMPOUND_CID>
88386261

>  <PUBCHEM_CONFORMER_RMSD>
0.8

>  <PUBCHEM_CONFORMER_DIVERSEORDER>
2
56
78
89
8
96
81
60
33
41
82
85
1
55
17
87
71
26
35
44
73
28
79
92
58
93
45
31
9
88
10
30
94
53
61
72
86
63
37
47
5
95
51
18
21
12
84
4
36
80
42
39
76
38
70
91
29
43
15
34
14
7
22
69
46
19
90
23
54
68
6
77
32
74
62
52
75
59
50
25
16
11
48
66
67
65
27
24
3
20
49
57
64
13
83
40

>  <PUBCHEM_MMFF94_PARTIAL_CHARGES>
26
1 -0.57
10 -0.29
11 0.09
12 0.54
13 0.14
15 -0.15
16 0.16
17 -0.15
18 0.41
2 -0.73
23 0.15
24 0.15
25 0.15
26 0.37
3 -0.62
33 0.15
34 0.15
35 0.15
36 0.4
37 0.4
4 -0.9
5 -0.14
6 0.44
7 0.14
8 -0.29
9 -0.15

>  <PUBCHEM_EFFECTIVE_ROTOR_COUNT>
6

>  <PUBCHEM_PHARMACOPHORE_FEATURES>
7
1 1 acceptor
1 13 hydrophobe
1 14 hydrophobe
1 2 donor
1 4 donor
3 3 4 18 cation
6 3 11 15 16 17 18 rings

>  <PUBCHEM_HEAVY_ATOM_COUNT>
18

>  <PUBCHEM_ATOM_DEF_STEREO_COUNT>
0

>  <PUBCHEM_ATOM_UDEF_STEREO_COUNT>
0

>  <PUBCHEM_BOND_DEF_STEREO_COUNT>
2

>  <PUBCHEM_BOND_UDEF_STEREO_COUNT>
0

>  <PUBCHEM_ISOTOPIC_ATOM_COUNT>
0

>  <PUBCHEM_COMPONENT_COUNT>
1

>  <PUBCHEM_CACTVS_TAUTO_COUNT>
7

>  <PUBCHEM_CONFORMER_ID>
0544AAD500000002

>  <PUBCHEM_MMFF94_ENERGY>
47.5964

>  <PUBCHEM_FEATURE_SELFOVERLAP>
35.521

>  <PUBCHEM_SHAPE_FINGERPRINT>
10366900 7 15195284231296508663
10447042 23 17775282742354630222
10835480 77 18341044211364765825
11089746 13 17240760709403959556
11315181 36 18343588455464264344
117890 112 17821447967230031060
11796584 16 17675928694679859970
12236239 1 16200152075401029280
12616971 3 15984830388755126457
13533116 47 17822562799201220890
14123238 8 12391514178661782928
14123256 10 16415476051823371973
14251764 18 14851895767567860307
14573314 32 18040435481767326918
14848160 23 18342739641051149362
15183329 4 17967805042587961835
15788980 27 18333735740563127369
17834072 8 18260546710669444717
17834076 25 17095242514336483201
18222031 100 15841550773233561864
19489759 90 18040714783780599827
200 152 17489869319641721273
20621476 66 17603587392218988525
20645477 56 17749389252806824041
20645477 70 18272091548158930414
21054139 6 15841544180437663845
23402539 116 17894346692163656501
23559900 14 18409727378467954768
26918003 58 18409169922072759770
29717793 49 17274829025804017764
300161 21 17967529060547388163
3009799 131 18272928306640952249
351380 180 18408604772769236480
4325135 7 13326565276702854952
474229 33 17489591177259140502
5283173 99 18336542720977761513
5385378 56 17023463011458222273
542803 24 15430038764071794480
57583515 80 17846780693711745201
59755656 520 16298385765159150939

>  <PUBCHEM_SHAPE_MULTIPOLES>
349.62
15.55
1.44
1.1
0.58
0.19
-0.15
-2.43
2.76
-1.4
0.12
-0.78
0.12
1.24

>  <PUBCHEM_SHAPE_SELFOVERLAP>
707.894

>  <PUBCHEM_SHAPE_VOLUME>
202.7

>  <PUBCHEM_COORDINATE_TYPE>
2
5
10

$$$$
