88386260
 OpenBabel01182520543D

 37 37  0  0  1  0  0  0  0  0999 V2000
    2.2572    2.9903   -0.1970 O   0  0  0  0  0  0  0  0  0  0  0  0
    3.3944   -1.1059    1.1974 N   0  0  0  0  0  0  0  0  0  0  0  0
    3.0757   -3.2770    0.2691 N   0  0  0  0  0  0  0  0  0  0  0  0
    0.7222    2.5212    1.4407 N   0  0  0  0  0  0  0  0  0  0  0  0
    0.2537    0.3871   -1.3579 C   0  0  1  0  0  0  0  0  0  0  0  0
    1.3622   -0.1227   -0.4511 C   0  0  0  0  0  0  0  0  0  0  0  0
    0.6134    0.2672   -2.8438 C   0  0  0  0  0  0  0  0  0  0  0  0
    2.0248    0.7305    0.4245 C   0  0  0  0  0  0  0  0  0  0  0  0
   -1.0558   -0.3131   -1.0748 C   0  0  0  0  0  0  0  0  0  0  0  0
    1.7145   -1.4669   -0.5034 C   0  0  0  0  0  0  0  0  0  0  0  0
    2.7279   -1.9047    0.3339 C   0  0  0  0  0  0  0  0  0  0  0  0
    3.0245    0.1943    1.2202 C   0  0  0  0  0  0  0  0  0  0  0  0
   -2.1620    0.3221   -0.6578 C   0  0  0  0  0  0  0  0  0  0  0  0
    1.6984    2.1445    0.5231 C   0  0  0  0  0  0  0  0  0  0  0  0
   -3.4098   -0.3565   -0.3924 C   0  0  0  0  0  0  0  0  0  0  0  0
   -4.5157    0.2781    0.0244 C   0  0  0  0  0  0  0  0  0  0  0  0
   -5.8180   -0.4152    0.2989 C   0  0  0  0  0  0  0  0  0  0  0  0
   -5.9077   -0.8735    1.7462 C   0  0  0  0  0  0  0  0  0  0  0  0
    0.1001    1.4588   -1.1875 H   0  0  0  0  0  0  0  0  0  0  0  0
    0.7340   -0.7757   -3.1580 H   0  0  0  0  0  0  0  0  0  0  0  0
    1.5528    0.7889   -3.0590 H   0  0  0  0  0  0  0  0  0  0  0  0
   -0.1677    0.7123   -3.4708 H   0  0  0  0  0  0  0  0  0  0  0  0
   -1.0953   -1.3877   -1.2443 H   0  0  0  0  0  0  0  0  0  0  0  0
    1.2201   -2.1571   -1.1799 H   0  0  0  0  0  0  0  0  0  0  0  0
    3.5781    0.8093    1.9234 H   0  0  0  0  0  0  0  0  0  0  0  0
   -2.1358    1.3971   -0.4981 H   0  0  0  0  0  0  0  0  0  0  0  0
   -3.4390   -1.4318   -0.5494 H   0  0  0  0  0  0  0  0  0  0  0  0
   -4.4949    1.3522    0.1949 H   0  0  0  0  0  0  0  0  0  0  0  0
   -5.9364   -1.2806   -0.3641 H   0  0  0  0  0  0  0  0  0  0  0  0
   -6.6428    0.2690    0.0699 H   0  0  0  0  0  0  0  0  0  0  0  0
    2.3638   -3.9419   -0.0076 H   0  0  0  0  0  0  0  0  0  0  0  0
    3.8127   -3.5933    0.8870 H   0  0  0  0  0  0  0  0  0  0  0  0
    0.2470    1.8450    2.0299 H   0  0  0  0  0  0  0  0  0  0  0  0
    0.4513    3.4933    1.5449 H   0  0  0  0  0  0  0  0  0  0  0  0
   -5.8203   -0.0268    2.4357 H   0  0  0  0  0  0  0  0  0  0  0  0
   -5.1168   -1.5922    1.9865 H   0  0  0  0  0  0  0  0  0  0  0  0
   -6.8714   -1.3595    1.9288 H   0  0  0  0  0  0  0  0  0  0  0  0
  1 14  2  0  0  0  0
  2 11  2  0  0  0  0
  2 12  1  0  0  0  0
  3 11  1  0  0  0  0
  3 31  1  0  0  0  0
  3 32  1  0  0  0  0
  4 14  1  0  0  0  0
  4 33  1  0  0  0  0
  4 34  1  0  0  0  0
  5  6  1  0  0  0  0
  5  7  1  0  0  0  0
  5  9  1  0  0  0  0
  5 19  1  1  0  0  0
  6  8  1  0  0  0  0
  6 10  2  0  0  0  0
  7 20  1  0  0  0  0
  7 21  1  0  0  0  0
  7 22  1  0  0  0  0
  8 12  2  0  0  0  0
  8 14  1  0  0  0  0
  9 13  2  0  0  0  0
  9 23  1  0  0  0  0
 10 11  1  0  0  0  0
 10 24  1  0  0  0  0
 12 25  1  0  0  0  0
 13 15  1  0  0  0  0
 13 26  1  0  0  0  0
 15 16  2  0  0  0  0
 15 27  1  0  0  0  0
 16 17  1  0  0  0  0
 16 28  1  0  0  0  0
 17 18  1  0  0  0  0
 17 29  1  0  0  0  0
 17 30  1  0  0  0  0
 18 35  1  0  0  0  0
 18 36  1  0  0  0  0
 18 37  1  0  0  0  0
M  END
>  <PUBCHEM_COMPOUND_CID>
88386260

>  <PUBCHEM_CONFORMER_RMSD>
0.6

>  <PUBCHEM_CONFORMER_DIVERSEORDER>
1
114
142
144
117
73
97
41
118
24
120
146
143
110
121
105
130
69
17
25
103
136
36
147
111
82
140
87
40
90
92
135
109
139
78
58
74
128
84
62
115
123
71
100
11
8
124
98
131
145
85
104
141
127
28
19
77
80
49
129
61
138
67
55
106
126
9
10
39
59
148
57
125
20
45
63
2
99
66
64
37
134
12
93
14
137
119
113
43
54
95
112
133
15
76
23
35
6
83
89
53
72
30
81
94
22
13
88
108
32
4
47
122
56
7
48
52
70
21
116
5
132
16
27
34
29
65
50
60
86
96
79
91
33
44
101
18
26
102
75
31
68
51
38
107
42
46
3

>  <PUBCHEM_MMFF94_PARTIAL_CHARGES>
26
1 -0.57
10 -0.15
11 0.41
12 0.16
13 -0.15
14 0.54
15 -0.15
16 -0.29
17 0.14
2 -0.62
23 0.15
24 0.15
25 0.15
26 0.15
27 0.15
28 0.15
3 -0.9
31 0.4
32 0.4
33 0.37
34 0.37
4 -0.8
5 0.28
6 -0.14
8 0.09
9 -0.29

>  <PUBCHEM_EFFECTIVE_ROTOR_COUNT>
5

>  <PUBCHEM_PHARMACOPHORE_FEATURES>
7
1 1 acceptor
1 18 hydrophobe
1 3 donor
1 4 donor
1 7 hydrophobe
3 2 3 11 cation
6 2 6 8 10 11 12 rings

>  <PUBCHEM_HEAVY_ATOM_COUNT>
18

>  <PUBCHEM_ATOM_DEF_STEREO_COUNT>
0

>  <PUBCHEM_ATOM_UDEF_STEREO_COUNT>
1

>  <PUBCHEM_BOND_DEF_STEREO_COUNT>
2

>  <PUBCHEM_BOND_UDEF_STEREO_COUNT>
0

>  <PUBCHEM_ISOTOPIC_ATOM_COUNT>
0

>  <PUBCHEM_COMPONENT_COUNT>
1

>  <PUBCHEM_CACTVS_TAUTO_COUNT>
7

>  <PUBCHEM_CONFORMER_ID>
0544AAD400000001

>  <PUBCHEM_MMFF94_ENERGY>
48.6972

>  <PUBCHEM_FEATURE_SELFOVERLAP>
35.521

>  <PUBCHEM_SHAPE_FINGERPRINT>
11545043 162 17894908500093698145
12633257 1 18340473556408450163
12644460 14 18342462581480147537
12824470 246 17535459332163071546
13464513 79 17530684299081771426
13533116 47 18408046217432606875
13583140 156 18410562986542040437
13675066 3 18040713684807068399
13965767 371 16988268846116188625
14251740 57 18041572420400016715
14252887 29 17022901280816765117
14341114 176 18344148077113300203
15061688 2 11095294431766942366
15342816 4 16370723682257870950
15501101 241 18260816103670920174
16945 1 18193526005357904420
20723712 36 17203321230429300404
21665062 11 18201998841476496145
23558518 356 17119434235475153276
23559900 14 17531252760042437263
23590187 173 14261636127488340187
31174 14 18335692849622396989
3472631 163 13901893536614734963
5283268 108 17917440765568764601
56616090 278 18199483231976597365
621550 5 17969781878400211350
7097593 13 18200860833972606287
8272917 22 18341049700348228896
8988823 20 18339356466164872743
960060 61 12468354674572774611
9999458 23 18338239387599104212

>  <PUBCHEM_SHAPE_MULTIPOLES>
349.62
9.72
2.53
1.78
21.1
0.17
0.86
-3.8
-5.25
-3.93
-0.83
0.01
0.24
0.4

>  <PUBCHEM_SHAPE_SELFOVERLAP>
712.002

>  <PUBCHEM_SHAPE_VOLUME>
201.8

>  <PUBCHEM_COORDINATE_TYPE>
2
5
10

$$$$
