88687856
 OpenBabel01182520543D

 30 30  0  0  0  0  0  0  0  0999 V2000
   -0.4500   -2.1468   -0.2517 O   0  0  0  0  0  0  0  0  0  0  0  0
    0.5677   -0.0754    0.1321 N   0  0  0  0  0  0  0  0  0  0  0  0
    2.2854   -1.7505   -0.0407 N   0  0  0  0  0  0  0  0  0  0  0  0
   -3.1847    1.6908   -0.4235 N   0  0  0  0  0  0  0  0  0  0  0  0
    2.8423    0.5459    0.3464 C   0  0  0  0  0  0  0  0  0  0  0  0
    4.3459    0.3135    0.4178 C   0  0  0  0  0  0  0  0  0  0  0  0
    1.9175   -0.4366    0.1421 C   0  0  0  0  0  0  0  0  0  0  0  0
    2.4861    2.0038    0.5523 C   0  0  0  0  0  0  0  0  0  0  0  0
    5.0137    0.4234   -0.9457 C   0  0  0  0  0  0  0  0  0  0  0  0
   -0.5089   -0.9356   -0.0602 C   0  0  0  0  0  0  0  0  0  0  0  0
   -1.8455   -0.2869   -0.0492 C   0  0  0  0  0  0  0  0  0  0  0  0
   -2.9826   -0.9953    0.3234 C   0  0  0  0  0  0  0  0  0  0  0  0
   -1.9988    1.0419   -0.4108 C   0  0  0  0  0  0  0  0  0  0  0  0
   -4.2206   -0.3622    0.3229 C   0  0  0  0  0  0  0  0  0  0  0  0
   -4.2676    0.9700   -0.0553 C   0  0  0  0  0  0  0  0  0  0  0  0
    4.5652   -0.6698    0.8493 H   0  0  0  0  0  0  0  0  0  0  0  0
    4.8019    1.0311    1.1115 H   0  0  0  0  0  0  0  0  0  0  0  0
    2.2376    2.1876    1.6022 H   0  0  0  0  0  0  0  0  0  0  0  0
    3.3262    2.6558    0.2874 H   0  0  0  0  0  0  0  0  0  0  0  0
    1.6572    2.3299   -0.0828 H   0  0  0  0  0  0  0  0  0  0  0  0
    4.8633    1.4157   -1.3835 H   0  0  0  0  0  0  0  0  0  0  0  0
    6.0915    0.2563   -0.8518 H   0  0  0  0  0  0  0  0  0  0  0  0
    4.6166   -0.3209   -1.6438 H   0  0  0  0  0  0  0  0  0  0  0  0
    0.3620    0.8947    0.3390 H   0  0  0  0  0  0  0  0  0  0  0  0
    3.2593   -2.0203   -0.0711 H   0  0  0  0  0  0  0  0  0  0  0  0
    1.5706   -2.4500   -0.1910 H   0  0  0  0  0  0  0  0  0  0  0  0
   -2.9224   -2.0387    0.6205 H   0  0  0  0  0  0  0  0  0  0  0  0
   -1.1732    1.6601   -0.7471 H   0  0  0  0  0  0  0  0  0  0  0  0
   -5.1201   -0.8942    0.6104 H   0  0  0  0  0  0  0  0  0  0  0  0
   -5.2088    1.5096   -0.0722 H   0  0  0  0  0  0  0  0  0  0  0  0
  1 10  2  0  0  0  0
  2  7  1  0  0  0  0
  2 10  1  0  0  0  0
  2 24  1  0  0  0  0
  3  7  1  0  0  0  0
  3 25  1  0  0  0  0
  3 26  1  0  0  0  0
  4 13  1  0  0  0  0
  4 15  2  0  0  0  0
  5  6  1  0  0  0  0
  5  7  2  0  0  0  0
  5  8  1  0  0  0  0
  6  9  1  0  0  0  0
  6 16  1  0  0  0  0
  6 17  1  0  0  0  0
  8 18  1  0  0  0  0
  8 19  1  0  0  0  0
  8 20  1  0  0  0  0
  9 21  1  0  0  0  0
  9 22  1  0  0  0  0
  9 23  1  0  0  0  0
 10 11  1  0  0  0  0
 11 12  1  0  0  0  0
 11 13  2  0  0  0  0
 12 14  2  0  0  0  0
 12 27  1  0  0  0  0
 13 28  1  0  0  0  0
 14 15  1  0  0  0  0
 14 29  1  0  0  0  0
 15 30  1  0  0  0  0
M  END
>  <PUBCHEM_COMPOUND_CID>
88687856

>  <PUBCHEM_CONFORMER_RMSD>
0.6

>  <PUBCHEM_CONFORMER_DIVERSEORDER>
1
14
22
17
6
15
10
23
9
20
11
13
18
2
21
4
12
7
8
19
16
3
5

>  <PUBCHEM_MMFF94_PARTIAL_CHARGES>
21
1 -0.57
10 0.54
11 0.09
12 -0.15
13 0.16
14 -0.15
15 0.16
2 -0.54
24 0.37
25 0.4
26 0.4
27 0.15
28 0.15
29 0.15
3 -0.9
30 0.15
4 -0.62
5 -0.28
6 0.14
7 0.21
8 0.14

>  <PUBCHEM_EFFECTIVE_ROTOR_COUNT>
4

>  <PUBCHEM_PHARMACOPHORE_FEATURES>
8
1 1 acceptor
1 2 donor
1 3 cation
1 3 donor
1 4 acceptor
1 8 hydrophobe
1 9 hydrophobe
6 4 11 12 13 14 15 rings

>  <PUBCHEM_HEAVY_ATOM_COUNT>
15

>  <PUBCHEM_ATOM_DEF_STEREO_COUNT>
0

>  <PUBCHEM_ATOM_UDEF_STEREO_COUNT>
0

>  <PUBCHEM_BOND_DEF_STEREO_COUNT>
1

>  <PUBCHEM_BOND_UDEF_STEREO_COUNT>
0

>  <PUBCHEM_ISOTOPIC_ATOM_COUNT>
0

>  <PUBCHEM_COMPONENT_COUNT>
1

>  <PUBCHEM_CACTVS_TAUTO_COUNT>
5

>  <PUBCHEM_CONFORMER_ID>
054944F000000001

>  <PUBCHEM_MMFF94_ENERGY>
42.6299

>  <PUBCHEM_FEATURE_SELFOVERLAP>
40.626

>  <PUBCHEM_SHAPE_FINGERPRINT>
10366900 7 18187364376012299691
10608611 8 18337105653740199037
11132069 177 18186520982312207341
11615757 297 17917996100455278657
12815109 37 9007061253315674260
13081056 2 18341894129547077968
13214271 11 18335420175766833719
13897977 58 18113341928888912693
14252887 29 13262391138381742056
14325111 11 18410571760685562891
15219456 202 18339080393708705807
15775835 57 18408322172452890075
17802600 8 18410849988366570801
17834072 8 18130796655285573244
18186145 218 17917711309531622291
20233049 118 18410012144012112476
20645477 56 18411981381530946430
20645477 70 18059296444238331030
212847 35 18334856104605473448
21524375 3 18411135848557631643
21652331 79 18335699476741395957
22485316 2 8790888475333457424
231179 274 18413389830583663102
23402539 116 18201993343770527964
23402655 69 18201718427198322124
23557571 272 18271816760525277943
23559900 14 18195517091524046986
26918003 58 9079118838753105182
3545911 37 18410576175769446905
474 4 16299806441308915916
4990 188 17989213650656517886
5104073 3 18335421231595553355
58051976 100 18130786814650828631
6430166 295 18411132546160031448
7364860 26 18267300932936514218
77779 3 18407760322127225514

>  <PUBCHEM_SHAPE_MULTIPOLES>
287.88
9.64
1.78
0.74
2.92
0.05
0.04
-2.59
0.56
-0.18
0.01
0.35
-0.09
0.44

>  <PUBCHEM_SHAPE_SELFOVERLAP>
586.913

>  <PUBCHEM_SHAPE_VOLUME>
164.9

>  <PUBCHEM_COORDINATE_TYPE>
2
5
10

$$$$
