88687373
 OpenBabel01182520543D

 24 24  0  0  0  0  0  0  0  0999 V2000
    0.3166    1.9483   -0.3109 O   0  0  0  0  0  0  0  0  0  0  0  0
    1.1401   -0.2127    0.0272 N   0  0  0  0  0  0  0  0  0  0  0  0
   -2.7920   -1.6052   -0.3197 N   0  0  0  0  0  0  0  0  0  0  0  0
    3.0326    1.2795   -0.2033 N   0  0  0  0  0  0  0  0  0  0  0  0
   -1.2472    0.2343   -0.0465 C   0  0  0  0  0  0  0  0  0  0  0  0
    0.1453    0.7458   -0.1311 C   0  0  0  0  0  0  0  0  0  0  0  0
    2.5136    0.0268    0.0090 C   0  0  0  0  0  0  0  0  0  0  0  0
   -2.2888    1.0572    0.3672 C   0  0  0  0  0  0  0  0  0  0  0  0
   -1.5487   -1.0774   -0.3759 C   0  0  0  0  0  0  0  0  0  0  0  0
    3.2967   -1.0578    0.2121 C   0  0  0  0  0  0  0  0  0  0  0  0
   -3.5818    0.5505    0.4379 C   0  0  0  0  0  0  0  0  0  0  0  0
    4.7922   -1.1141    0.2473 C   0  0  0  0  0  0  0  0  0  0  0  0
   -3.7788   -0.7753    0.0868 C   0  0  0  0  0  0  0  0  0  0  0  0
    0.8684   -1.1727    0.2195 H   0  0  0  0  0  0  0  0  0  0  0  0
   -2.1117    2.0933    0.6424 H   0  0  0  0  0  0  0  0  0  0  0  0
   -0.8062   -1.7795   -0.7400 H   0  0  0  0  0  0  0  0  0  0  0  0
    2.8244   -2.0268    0.3737 H   0  0  0  0  0  0  0  0  0  0  0  0
   -4.4090    1.1732    0.7587 H   0  0  0  0  0  0  0  0  0  0  0  0
    5.1514   -1.7996   -0.5268 H   0  0  0  0  0  0  0  0  0  0  0  0
    5.2752   -0.1480    0.0879 H   0  0  0  0  0  0  0  0  0  0  0  0
    5.1216   -1.4965    1.2187 H   0  0  0  0  0  0  0  0  0  0  0  0
   -4.7684   -1.2187    0.1250 H   0  0  0  0  0  0  0  0  0  0  0  0
    4.0304    1.4391   -0.2154 H   0  0  0  0  0  0  0  0  0  0  0  0
    2.4025    2.0568   -0.3534 H   0  0  0  0  0  0  0  0  0  0  0  0
  1  6  2  0  0  0  0
  2  6  1  0  0  0  0
  2  7  1  0  0  0  0
  2 14  1  0  0  0  0
  3  9  1  0  0  0  0
  3 13  2  0  0  0  0
  4  7  1  0  0  0  0
  4 23  1  0  0  0  0
  4 24  1  0  0  0  0
  5  6  1  0  0  0  0
  5  8  1  0  0  0  0
  5  9  2  0  0  0  0
  7 10  2  0  0  0  0
  8 11  2  0  0  0  0
  8 15  1  0  0  0  0
  9 16  1  0  0  0  0
 10 12  1  0  0  0  0
 10 17  1  0  0  0  0
 11 13  1  0  0  0  0
 11 18  1  0  0  0  0
 12 19  1  0  0  0  0
 12 20  1  0  0  0  0
 12 21  1  0  0  0  0
 13 22  1  0  0  0  0
M  END
>  <PUBCHEM_COMPOUND_CID>
88687373

>  <PUBCHEM_CONFORMER_RMSD>
0.6

>  <PUBCHEM_CONFORMER_DIVERSEORDER>
1
8
5
11
9
6
3
10
7
2
4
12

>  <PUBCHEM_MMFF94_PARTIAL_CHARGES>
21
1 -0.57
10 -0.29
11 -0.15
12 0.14
13 0.16
14 0.37
15 0.15
16 0.15
17 0.15
18 0.15
2 -0.54
22 0.15
23 0.4
24 0.4
3 -0.62
4 -0.9
5 0.09
6 0.54
7 0.21
8 -0.15
9 0.16

>  <PUBCHEM_EFFECTIVE_ROTOR_COUNT>
3

>  <PUBCHEM_PHARMACOPHORE_FEATURES>
7
1 1 acceptor
1 12 hydrophobe
1 2 donor
1 3 acceptor
1 4 cation
1 4 donor
6 3 5 8 9 11 13 rings

>  <PUBCHEM_HEAVY_ATOM_COUNT>
13

>  <PUBCHEM_ATOM_DEF_STEREO_COUNT>
0

>  <PUBCHEM_ATOM_UDEF_STEREO_COUNT>
0

>  <PUBCHEM_BOND_DEF_STEREO_COUNT>
1

>  <PUBCHEM_BOND_UDEF_STEREO_COUNT>
0

>  <PUBCHEM_ISOTOPIC_ATOM_COUNT>
0

>  <PUBCHEM_COMPONENT_COUNT>
1

>  <PUBCHEM_CACTVS_TAUTO_COUNT>
5

>  <PUBCHEM_CONFORMER_ID>
0549430D00000001

>  <PUBCHEM_MMFF94_ENERGY>
36.3344

>  <PUBCHEM_FEATURE_SELFOVERLAP>
35.549

>  <PUBCHEM_SHAPE_FINGERPRINT>
10465860 250 17632854205173753378
11132069 177 18341325626348421634
11769659 78 18341327889806729535
12032990 46 18335424564442694866
12251169 10 18272088271124873722
124424 183 17418088798012198329
12932764 1 17603575310069419204
13288520 33 18338518543541264382
13296908 3 18334855026072738444
13690532 89 18410854378397893903
14144814 61 18412547634509436193
14325111 11 18411983576301556113
15375462 189 18186799137047200354
15442244 35 18411421700116611936
15536298 74 18341612650765867456
17804303 29 18273217490793529361
18186145 218 16153709842541986332
19422 9 18409452504834566862
200 152 18059281133111852703
20279233 1 16128656340510685910
20281475 54 18336265746698872711
20645477 70 18408318891177413094
20871998 22 18270687442077649326
21267235 1 18410302405827305027
21501925 9 18411410731170635888
22485316 2 18408600344916254722
2255824 54 18041001765301074678
23402539 116 17988916744300415741
23463225 33 18410856542607827958
23552423 10 18048599514960543429
23559900 14 18272644667111507288
42 15 18411703170792833730
5104073 3 18341334474017904019
7364860 26 18126284378943939625

>  <PUBCHEM_SHAPE_MULTIPOLES>
246.72
8.13
1.59
0.65
5.17
0.17
0.02
-2.8
0.98
-0.07
-0.13
-0.07
-0.01
-0.47

>  <PUBCHEM_SHAPE_SELFOVERLAP>
507.085

>  <PUBCHEM_SHAPE_VOLUME>
139.5

>  <PUBCHEM_COORDINATE_TYPE>
2
5
10

$$$$
