88758244
 OpenBabel01182520543D

 16 17  0  0  0  0  0  0  0  0999 V2000
   -3.2965    1.1238    0.0002 Cl  0  0  0  0  0  0  0  0  0  0  0  0
   -2.9911   -1.9821   -0.0001 Cl  0  0  0  0  0  0  0  0  0  0  0  0
   -0.6391    2.4986   -0.0001 O   0  0  0  0  0  0  0  0  0  0  0  0
   -1.7089    0.4215    0.0000 N   0  0  0  0  0  0  0  0  0  0  0  0
   -0.4591   -1.5895    0.0000 N   0  0  0  0  0  0  0  0  0  0  0  0
    1.8687   -1.5289    0.0001 N   0  0  0  0  0  0  0  0  0  0  0  0
    0.6939    0.5709    0.0000 C   0  0  0  0  0  0  0  0  0  0  0  0
    0.7152   -0.8203    0.0000 C   0  0  0  0  0  0  0  0  0  0  0  0
   -0.6048    1.2725   -0.0001 C   0  0  0  0  0  0  0  0  0  0  0  0
    1.9001    1.2686    0.0001 C   0  0  0  0  0  0  0  0  0  0  0  0
   -1.5962   -0.9667    0.0000 C   0  0  0  0  0  0  0  0  0  0  0  0
    3.0933    0.5573    0.0000 C   0  0  0  0  0  0  0  0  0  0  0  0
    3.0244   -0.8257    0.0000 C   0  0  0  0  0  0  0  0  0  0  0  0
    1.9278    2.3541    0.0001 H   0  0  0  0  0  0  0  0  0  0  0  0
    4.0487    1.0695   -0.0001 H   0  0  0  0  0  0  0  0  0  0  0  0
    3.9283   -1.4261    0.0000 H   0  0  0  0  0  0  0  0  0  0  0  0
  1  4  1  0  0  0  0
  2 11  1  0  0  0  0
  3  9  2  0  0  0  0
  4  9  1  0  0  0  0
  4 11  1  0  0  0  0
  5  8  1  0  0  0  0
  5 11  2  0  0  0  0
  6  8  1  0  0  0  0
  6 13  2  0  0  0  0
  7  8  2  0  0  0  0
  7  9  1  0  0  0  0
  7 10  1  0  0  0  0
 10 12  2  0  0  0  0
 10 14  1  0  0  0  0
 12 13  1  0  0  0  0
 12 15  1  0  0  0  0
 13 16  1  0  0  0  0
M  END
>  <PUBCHEM_COMPOUND_CID>
88758244

>  <PUBCHEM_CONFORMER_RMSD>
0.4

>  <PUBCHEM_CONFORMER_DIVERSEORDER>
1

>  <PUBCHEM_MMFF94_PARTIAL_CHARGES>
16
1 -0.06
10 -0.15
11 0.72
12 -0.15
13 0.16
14 0.15
15 0.15
16 0.15
2 -0.21
3 -0.57
4 -0.06
5 -0.63
6 -0.62
7 0.09
8 0.49
9 0.54

>  <PUBCHEM_EFFECTIVE_ROTOR_COUNT>
0

>  <PUBCHEM_PHARMACOPHORE_FEATURES>
4
1 3 acceptor
1 6 acceptor
6 4 5 7 8 9 11 rings
6 6 7 8 10 12 13 rings

>  <PUBCHEM_HEAVY_ATOM_COUNT>
13

>  <PUBCHEM_ATOM_DEF_STEREO_COUNT>
0

>  <PUBCHEM_ATOM_UDEF_STEREO_COUNT>
0

>  <PUBCHEM_BOND_DEF_STEREO_COUNT>
0

>  <PUBCHEM_BOND_UDEF_STEREO_COUNT>
0

>  <PUBCHEM_ISOTOPIC_ATOM_COUNT>
0

>  <PUBCHEM_COMPONENT_COUNT>
1

>  <PUBCHEM_CACTVS_TAUTO_COUNT>
1

>  <PUBCHEM_CONFORMER_ID>
054A57E400000001

>  <PUBCHEM_MMFF94_ENERGY>
31.5817

>  <PUBCHEM_FEATURE_SELFOVERLAP>
20.333

>  <PUBCHEM_SHAPE_FINGERPRINT>
10967382 1 18338516309598821863
11132069 177 18412821374107641608
12032990 46 18338804523305789175
12382932 28 18412824694048841681
13140716 1 18410853252557235083
13380535 21 18339654368484258951
13380535 76 18340764823884052943
13897977 150 18411976966383999229
14325111 11 18410855481624175232
15775835 57 18409737235544291376
16945 1 18266458706934029574
193761 8 14447406966159075398
20588541 1 18341615850120747117
20871998 184 18202002139942756015
21501502 16 18409730685513326210
2334 1 18338517550907823331
23402539 116 18270103605228782197
23402655 69 18269259198254103077
23463225 33 18408887351504880950
23552423 10 18260831522582452318
23559900 14 18342737387232263110
241688 4 18410011056741548897
2748010 2 18411980299225600703
3312278 4 18410577292313244376
528886 8 18411412895396348713
53812653 166 18343298192995021976
8809292 202 18334862684057767986

>  <PUBCHEM_SHAPE_MULTIPOLES>
250.46
4.97
2.24
0.6
0.35
0.25
0
-0.72
0
1.03
0
0.01
0
0

>  <PUBCHEM_SHAPE_SELFOVERLAP>
525.767

>  <PUBCHEM_SHAPE_VOLUME>
142.3

>  <PUBCHEM_COORDINATE_TYPE>
2
5
10

$$$$
