89050714
 OpenBabel01182520543D

 28 29  0  0  0  0  0  0  0  0999 V2000
   -4.5850    2.6287   -0.6065 S   0  0  0  0  0  0  0  0  0  0  0  0
   -5.4453   -0.1845    0.2535 O   0  0  0  0  0  0  0  0  0  0  0  0
   -4.2450    4.0456   -0.2955 O   0  0  0  0  0  0  0  0  0  0  0  0
   -2.4771   -3.0112   -0.1547 N   0  0  0  0  0  0  0  0  0  0  0  0
    4.7071    1.6276    0.2995 N   0  0  0  0  0  0  0  0  0  0  0  0
    7.0185    1.1158    0.0281 N   0  0  0  0  0  0  0  0  0  0  0  0
   -4.0323    1.6541    0.4071 N   0  0  0  0  0  0  0  0  0  0  0  0
   -0.8391   -1.2392   -0.0080 C   0  0  0  0  0  0  0  0  0  0  0  0
   -3.1832   -0.7154    0.1200 C   0  0  0  0  0  0  0  0  0  0  0  0
   -1.8561   -0.3002    0.1261 C   0  0  0  0  0  0  0  0  0  0  0  0
    3.0606   -0.1170   -0.0015 C   0  0  0  0  0  0  0  0  0  0  0  0
   -3.4383   -2.0699   -0.0219 C   0  0  0  0  0  0  0  0  0  0  0  0
   -1.1991   -2.5701   -0.1442 C   0  0  0  0  0  0  0  0  0  0  0  0
    4.0700   -1.0313   -0.2819 C   0  0  0  0  0  0  0  0  0  0  0  0
    5.3975   -0.6177   -0.2718 C   0  0  0  0  0  0  0  0  0  0  0  0
    5.6608    0.7105    0.0221 C   0  0  0  0  0  0  0  0  0  0  0  0
    3.4285    1.1888    0.2804 C   0  0  0  0  0  0  0  0  0  0  0  0
    0.5355   -0.8436   -0.0055 C   0  0  0  0  0  0  0  0  0  0  0  0
   -4.2681    0.2404    0.2581 C   0  0  0  0  0  0  0  0  0  0  0  0
    1.6901   -0.5114   -0.0035 C   0  0  0  0  0  0  0  0  0  0  0  0
   -1.5949    0.7497    0.2348 H   0  0  0  0  0  0  0  0  0  0  0  0
   -4.4482   -2.4681   -0.0358 H   0  0  0  0  0  0  0  0  0  0  0  0
   -0.4529   -3.3519   -0.2529 H   0  0  0  0  0  0  0  0  0  0  0  0
    3.8372   -2.0685   -0.5098 H   0  0  0  0  0  0  0  0  0  0  0  0
    6.1904   -1.3256   -0.4903 H   0  0  0  0  0  0  0  0  0  0  0  0
    2.6884    1.9508    0.5076 H   0  0  0  0  0  0  0  0  0  0  0  0
    7.7262    0.4267    0.2509 H   0  0  0  0  0  0  0  0  0  0  0  0
    7.2073    2.0856    0.2494 H   0  0  0  0  0  0  0  0  0  0  0  0
  1  3  2  0  0  0  0
  1  7  2  0  0  0  0
  2 19  2  0  0  0  0
  4 12  1  0  0  0  0
  4 13  2  0  0  0  0
  5 16  2  0  0  0  0
  5 17  1  0  0  0  0
  6 16  1  0  0  0  0
  6 27  1  0  0  0  0
  6 28  1  0  0  0  0
  7 19  1  0  0  0  0
  8 10  2  0  0  0  0
  8 13  1  0  0  0  0
  8 18  1  0  0  0  0
  9 10  1  0  0  0  0
  9 12  2  0  0  0  0
  9 19  1  0  0  0  0
 10 21  1  0  0  0  0
 11 14  1  0  0  0  0
 11 17  2  0  0  0  0
 11 20  1  0  0  0  0
 12 22  1  0  0  0  0
 13 23  1  0  0  0  0
 14 15  2  0  0  0  0
 14 24  1  0  0  0  0
 15 16  1  0  0  0  0
 15 25  1  0  0  0  0
 17 26  1  0  0  0  0
 18 20  3  0  0  0  0
M  END
>  <PUBCHEM_COMPOUND_CID>
89050714

>  <PUBCHEM_CONFORMER_RMSD>
0.6

>  <PUBCHEM_CONFORMER_DIVERSEORDER>
1
5
4
6
3
2

>  <PUBCHEM_MMFF94_PARTIAL_CHARGES>
28
1 0.72
10 -0.15
11 0.07
12 0.16
13 0.16
14 -0.15
15 -0.15
16 0.41
17 0.16
18 -0.07
19 0.91
2 -0.57
20 -0.07
21 0.15
22 0.15
23 0.15
24 0.15
25 0.15
26 0.15
27 0.4
28 0.4
3 -0.5
4 -0.62
5 -0.62
6 -0.9
7 -0.65
8 0.07
9 0.09

>  <PUBCHEM_EFFECTIVE_ROTOR_COUNT>
2

>  <PUBCHEM_PHARMACOPHORE_FEATURES>
7
1 2 acceptor
1 4 acceptor
1 6 donor
1 7 donor
3 5 6 16 cation
6 4 8 9 10 12 13 rings
6 5 11 14 15 16 17 rings

>  <PUBCHEM_HEAVY_ATOM_COUNT>
20

>  <PUBCHEM_ATOM_DEF_STEREO_COUNT>
0

>  <PUBCHEM_ATOM_UDEF_STEREO_COUNT>
0

>  <PUBCHEM_BOND_DEF_STEREO_COUNT>
0

>  <PUBCHEM_BOND_UDEF_STEREO_COUNT>
0

>  <PUBCHEM_ISOTOPIC_ATOM_COUNT>
0

>  <PUBCHEM_COMPONENT_COUNT>
1

>  <PUBCHEM_CACTVS_TAUTO_COUNT>
2

>  <PUBCHEM_CONFORMER_ID>
054ECE5A00000001

>  <PUBCHEM_MMFF94_ENERGY>
50.5946

>  <PUBCHEM_FEATURE_SELFOVERLAP>
35.521

>  <PUBCHEM_SHAPE_FINGERPRINT>
10014705 185 18412546534792417907
10411042 1 17977948218239707211
12107183 9 18046616816291485362
12390115 104 18269567052666737649
12596602 18 16805890700838886761
12633257 1 15285656377680411041
13073987 5 18333730234679447898
13167372 99 18334856109174844736
13785724 45 17617373983794620602
14251764 75 17910400485733192825
14347329 18 18340480054657325641
14508225 48 17982999344597824679
14598715 104 17987501754524561776
155225 5 18339642213801866128
16079462 125 17774994722507065856
17834072 32 18338516318579477865
17844677 252 18338242690523458042
20281389 69 18408322181433331784
20645477 56 18342744030945699171
20645477 70 16845024424537823486
21033648 29 18341602715974048185
21065198 57 18339924930503354634
21279426 13 18270122288663327068
21315763 129 18339922744427862762
21315764 268 18411133662482724437
21421861 104 17750784464469843258
21426921 1 18339642360225808399
23402539 116 18201154442295166542
23559900 14 18131349752341476450
23569914 2 17482500427120780312
270888 7 18265330595800245645
2838139 119 18266452118924014549
300161 21 18343299297440004706
3545911 37 18343587369248897346
4073 2 18115312306146924386
4214541 1 18341051912504475146
5104073 3 18040715818620169322
5283173 99 18412824690070463472
542803 24 17822009861112049446
6327066 14 18262794048318532733
7062679 6 18334863831009046036
77779 3 18340770454992632618
7808743 9 18410008815211822897
90127 26 18335994146279535978
9981440 41 18260838042976025411

>  <PUBCHEM_SHAPE_MULTIPOLES>
383.78
15.5
3.23
0.65
15.23
1.74
-0.02
9.25
-0.1
-5.77
-0.42
-0.1
0.06
0.71

>  <PUBCHEM_SHAPE_SELFOVERLAP>
814.283

>  <PUBCHEM_SHAPE_VOLUME>
214.6

>  <PUBCHEM_COORDINATE_TYPE>
2
5
10

$$$$
