89187297
 OpenBabel01182520543D

 29 30  0  0  0  0  0  0  0  0999 V2000
   -0.2009   -1.8827   -0.2993 O   0  0  0  0  0  0  0  0  0  0  0  0
    0.4596    0.3511    0.0216 N   0  0  0  0  0  0  0  0  0  0  0  0
   -4.1800   -0.9059    0.4154 N   0  0  0  0  0  0  0  0  0  0  0  0
    6.0465    0.0514    0.0625 N   0  0  0  0  0  0  0  0  0  0  0  0
   -5.9058    0.7126    0.1342 N   0  0  0  0  0  0  0  0  0  0  0  0
    1.8526    0.2765    0.0314 C   0  0  0  0  0  0  0  0  0  0  0  0
   -1.8912   -0.3003   -0.0738 C   0  0  0  0  0  0  0  0  0  0  0  0
    2.4863   -0.9556   -0.1312 C   0  0  0  0  0  0  0  0  0  0  0  0
    2.6117    1.4339    0.2040 C   0  0  0  0  0  0  0  0  0  0  0  0
   -0.4593   -0.6948   -0.1375 C   0  0  0  0  0  0  0  0  0  0  0  0
    4.6383    0.1275    0.0515 C   0  0  0  0  0  0  0  0  0  0  0  0
    3.8791   -1.0300   -0.1210 C   0  0  0  0  0  0  0  0  0  0  0  0
    4.0046    1.3594    0.2141 C   0  0  0  0  0  0  0  0  0  0  0  0
   -2.2975    0.9829   -0.4226 C   0  0  0  0  0  0  0  0  0  0  0  0
   -2.8627   -1.1996    0.3351 C   0  0  0  0  0  0  0  0  0  0  0  0
   -3.6440    1.3228   -0.3529 C   0  0  0  0  0  0  0  0  0  0  0  0
   -4.5373    0.3509    0.0685 C   0  0  0  0  0  0  0  0  0  0  0  0
    0.0965    1.2852    0.1886 H   0  0  0  0  0  0  0  0  0  0  0  0
    1.9699   -1.8948   -0.2697 H   0  0  0  0  0  0  0  0  0  0  0  0
    2.1315    2.4008    0.3317 H   0  0  0  0  0  0  0  0  0  0  0  0
    4.3625   -1.9954   -0.2484 H   0  0  0  0  0  0  0  0  0  0  0  0
    4.5851    2.2683    0.3496 H   0  0  0  0  0  0  0  0  0  0  0  0
   -1.6050    1.7361   -0.7853 H   0  0  0  0  0  0  0  0  0  0  0  0
   -2.6144   -2.2157    0.6259 H   0  0  0  0  0  0  0  0  0  0  0  0
   -3.9700    2.3198   -0.6312 H   0  0  0  0  0  0  0  0  0  0  0  0
    6.5062   -0.8414   -0.0571 H   0  0  0  0  0  0  0  0  0  0  0  0
    6.5977    0.8903    0.1858 H   0  0  0  0  0  0  0  0  0  0  0  0
   -6.1401    1.6832    0.3029 H   0  0  0  0  0  0  0  0  0  0  0  0
   -6.5541    0.0013    0.4486 H   0  0  0  0  0  0  0  0  0  0  0  0
  1 10  2  0  0  0  0
  2  6  1  0  0  0  0
  2 10  1  0  0  0  0
  2 18  1  0  0  0  0
  3 15  1  0  0  0  0
  3 17  2  0  0  0  0
  4 11  1  0  0  0  0
  4 26  1  0  0  0  0
  4 27  1  0  0  0  0
  5 17  1  0  0  0  0
  5 28  1  0  0  0  0
  5 29  1  0  0  0  0
  6  8  2  0  0  0  0
  6  9  1  0  0  0  0
  7 10  1  0  0  0  0
  7 14  1  0  0  0  0
  7 15  2  0  0  0  0
  8 12  1  0  0  0  0
  8 19  1  0  0  0  0
  9 13  2  0  0  0  0
  9 20  1  0  0  0  0
 11 12  2  0  0  0  0
 11 13  1  0  0  0  0
 12 21  1  0  0  0  0
 13 22  1  0  0  0  0
 14 16  2  0  0  0  0
 14 23  1  0  0  0  0
 15 24  1  0  0  0  0
 16 17  1  0  0  0  0
 16 25  1  0  0  0  0
M  END
>  <PUBCHEM_COMPOUND_CID>
89187297

>  <PUBCHEM_CONFORMER_RMSD>
0.6

>  <PUBCHEM_CONFORMER_DIVERSEORDER>
2
6
5
1
4
3

>  <PUBCHEM_MMFF94_PARTIAL_CHARGES>
29
1 -0.57
10 0.54
11 0.1
12 -0.15
13 -0.15
14 -0.15
15 0.16
16 -0.15
17 0.41
18 0.37
19 0.15
2 -0.55
20 0.15
21 0.15
22 0.15
23 0.15
24 0.15
25 0.15
26 0.4
27 0.4
28 0.4
29 0.4
3 -0.62
4 -0.9
5 -0.9
6 0.12
7 0.09
8 -0.15
9 -0.15

>  <PUBCHEM_EFFECTIVE_ROTOR_COUNT>
3

>  <PUBCHEM_PHARMACOPHORE_FEATURES>
8
1 1 acceptor
1 2 donor
1 4 cation
1 4 donor
1 5 donor
3 3 5 17 cation
6 3 7 14 15 16 17 rings
6 6 8 9 11 12 13 rings

>  <PUBCHEM_HEAVY_ATOM_COUNT>
17

>  <PUBCHEM_ATOM_DEF_STEREO_COUNT>
0

>  <PUBCHEM_ATOM_UDEF_STEREO_COUNT>
0

>  <PUBCHEM_BOND_DEF_STEREO_COUNT>
0

>  <PUBCHEM_BOND_UDEF_STEREO_COUNT>
0

>  <PUBCHEM_ISOTOPIC_ATOM_COUNT>
0

>  <PUBCHEM_COMPONENT_COUNT>
1

>  <PUBCHEM_CACTVS_TAUTO_COUNT>
7

>  <PUBCHEM_CONFORMER_ID>
0550E3E100000002

>  <PUBCHEM_MMFF94_ENERGY>
70.0374

>  <PUBCHEM_FEATURE_SELFOVERLAP>
40.596

>  <PUBCHEM_SHAPE_FINGERPRINT>
11471102 20 18343301461944896038
12107183 9 17687177591341335368
12236239 1 14490193803939443301
12403259 415 18410565184779955028
12507557 5 18343584061691621457
12596602 18 15647063689087980453
12815109 37 9223229645925512725
13081056 2 18410573980951734789
13214271 11 18409166632581647511
13533116 47 14907908124656676838
13675066 3 18410856598415912066
14123238 8 18408322189822643788
14341114 176 18334863804917306777
15196674 1 18410855507388801696
17834072 8 18343588425974174772
17834076 25 14333407848233956084
18186145 218 18114454617645001790
19433438 28 18334012825888271257
200 152 17775564239017102307
20645477 56 18334857212564416141
20645477 70 18059577928084447222
21267235 1 18411144623681868758
212847 35 18410576206193245396
21652331 79 18408602556687619397
22854114 59 18410294709467047387
23402539 116 18131345328013497493
23402655 69 18201719561386076004
23559900 14 18411979187077231296
26918003 58 18413389847499716960
3004659 81 18261397694658560278
351380 180 18411417319175727177
3545911 37 18410012130425350268
42 15 18260267455932207310
4214541 1 18410292527365165673
42788 4 18410856568229737160
5104073 3 18409728503722707794
542803 24 17313105267428766636
69090 78 18343016722271177911
77779 3 18408886247787956656
8272917 22 18130230354556547838
9709674 26 18410862087432193254

>  <PUBCHEM_SHAPE_MULTIPOLES>
324.06
12.51
1.51
0.64
0.11
0.07
0.01
-2.25
-0.77
-0.01
0.03
-0.07
-0.01
0.44

>  <PUBCHEM_SHAPE_SELFOVERLAP>
698.062

>  <PUBCHEM_SHAPE_VOLUME>
176.8

>  <PUBCHEM_COORDINATE_TYPE>
2
5
10

$$$$
