89494598
 OpenBabel01182520543D

 29 29  0  0  0  0  0  0  0  0999 V2000
    4.2859   -0.4468    0.3692 O   0  0  0  0  0  0  0  0  0  0  0  0
   -2.0081   -0.8562   -0.2624 N   0  0  0  0  0  0  0  0  0  0  0  0
   -0.2661    0.7437   -0.4101 N   0  0  0  0  0  0  0  0  0  0  0  0
    3.7750    1.7270   -0.1525 N   0  0  0  0  0  0  0  0  0  0  0  0
   -2.9997    0.1398   -0.5902 C   0  0  0  0  0  0  0  0  0  0  0  0
   -3.4863    0.8517    0.6677 C   0  0  0  0  0  0  0  0  0  0  0  0
   -0.6468   -0.5319   -0.1740 C   0  0  0  0  0  0  0  0  0  0  0  0
   -2.4503   -2.2293   -0.0120 C   0  0  0  0  0  0  0  0  0  0  0  0
   -4.5029    1.9454    0.3711 C   0  0  0  0  0  0  0  0  0  0  0  0
    0.2288   -1.5545    0.1538 C   0  0  0  0  0  0  0  0  0  0  0  0
    1.5821   -1.2485    0.2452 C   0  0  0  0  0  0  0  0  0  0  0  0
    2.0124    0.0526    0.0093 C   0  0  0  0  0  0  0  0  0  0  0  0
    1.0571    1.0033   -0.3121 C   0  0  0  0  0  0  0  0  0  0  0  0
    3.4190    0.4038    0.0971 C   0  0  0  0  0  0  0  0  0  0  0  0
   -3.8557   -0.3292   -1.0922 H   0  0  0  0  0  0  0  0  0  0  0  0
   -2.6101    0.8667   -1.3140 H   0  0  0  0  0  0  0  0  0  0  0  0
   -2.6382    1.2978    1.2010 H   0  0  0  0  0  0  0  0  0  0  0  0
   -3.9358    0.1237    1.3542 H   0  0  0  0  0  0  0  0  0  0  0  0
   -3.5395   -2.3129   -0.1050 H   0  0  0  0  0  0  0  0  0  0  0  0
   -2.2053   -2.5470    1.0076 H   0  0  0  0  0  0  0  0  0  0  0  0
   -2.0209   -2.9248   -0.7416 H   0  0  0  0  0  0  0  0  0  0  0  0
   -5.3868    1.5325   -0.1253 H   0  0  0  0  0  0  0  0  0  0  0  0
   -4.8264    2.4252    1.3000 H   0  0  0  0  0  0  0  0  0  0  0  0
   -4.0712    2.7142   -0.2775 H   0  0  0  0  0  0  0  0  0  0  0  0
   -0.0601   -2.5808    0.3447 H   0  0  0  0  0  0  0  0  0  0  0  0
    2.2838   -2.0377    0.5013 H   0  0  0  0  0  0  0  0  0  0  0  0
    1.2803    2.0430   -0.5152 H   0  0  0  0  0  0  0  0  0  0  0  0
    3.1341    2.4753   -0.3841 H   0  0  0  0  0  0  0  0  0  0  0  0
    4.7521    1.9984   -0.1046 H   0  0  0  0  0  0  0  0  0  0  0  0
  1 14  2  0  0  0  0
  2  5  1  0  0  0  0
  2  7  1  0  0  0  0
  2  8  1  0  0  0  0
  3  7  2  0  0  0  0
  3 13  1  0  0  0  0
  4 14  1  0  0  0  0
  4 28  1  0  0  0  0
  4 29  1  0  0  0  0
  5  6  1  0  0  0  0
  5 15  1  0  0  0  0
  5 16  1  0  0  0  0
  6  9  1  0  0  0  0
  6 17  1  0  0  0  0
  6 18  1  0  0  0  0
  7 10  1  0  0  0  0
  8 19  1  0  0  0  0
  8 20  1  0  0  0  0
  8 21  1  0  0  0  0
  9 22  1  0  0  0  0
  9 23  1  0  0  0  0
  9 24  1  0  0  0  0
 10 11  2  0  0  0  0
 10 25  1  0  0  0  0
 11 12  1  0  0  0  0
 11 26  1  0  0  0  0
 12 13  2  0  0  0  0
 12 14  1  0  0  0  0
 13 27  1  0  0  0  0
M  END
>  <PUBCHEM_COMPOUND_CID>
89494598

>  <PUBCHEM_CONFORMER_RMSD>
0.6

>  <PUBCHEM_CONFORMER_DIVERSEORDER>
2
33
16
14
31
10
34
35
5
21
6
30
18
9
12
36
15
32
4
25
29
19
11
13
26
17
27
3
28
1
24
20
8
23
7
22

>  <PUBCHEM_MMFF94_PARTIAL_CHARGES>
17
1 -0.57
10 -0.15
11 -0.15
12 0.09
13 0.16
14 0.54
2 -0.84
25 0.15
26 0.15
27 0.15
28 0.37
29 0.37
3 -0.62
4 -0.8
5 0.37
7 0.41
8 0.37

>  <PUBCHEM_EFFECTIVE_ROTOR_COUNT>
4

>  <PUBCHEM_PHARMACOPHORE_FEATURES>
5
1 1 acceptor
1 4 donor
1 9 hydrophobe
3 2 3 7 cation
6 3 7 10 11 12 13 rings

>  <PUBCHEM_HEAVY_ATOM_COUNT>
14

>  <PUBCHEM_ATOM_DEF_STEREO_COUNT>
0

>  <PUBCHEM_ATOM_UDEF_STEREO_COUNT>
0

>  <PUBCHEM_BOND_DEF_STEREO_COUNT>
0

>  <PUBCHEM_BOND_UDEF_STEREO_COUNT>
0

>  <PUBCHEM_ISOTOPIC_ATOM_COUNT>
0

>  <PUBCHEM_COMPONENT_COUNT>
1

>  <PUBCHEM_CACTVS_TAUTO_COUNT>
2

>  <PUBCHEM_CONFORMER_ID>
0555944600000002

>  <PUBCHEM_MMFF94_ENERGY>
45.5686

>  <PUBCHEM_FEATURE_SELFOVERLAP>
25.371

>  <PUBCHEM_SHAPE_FINGERPRINT>
10465860 228 18338803303539949170
11132069 177 18335410283961324184
11543360 7 16199859687017986188
122479 349 18409453574534650811
12251169 10 18334299773148974531
12346645 44 18410572898572217563
12491281 212 18409732884684359523
12500047 106 18272083894563852651
12932764 1 17313088761859067398
13380535 21 18409453570060699167
13380535 76 18412825763896871719
14123255 52 18339644434731571873
14325111 11 18336543927768022110
14445660 50 18408042926580017217
14897335 6 18412824660137489471
15775835 57 18341614781016937761
16945 1 18261946358458452718
1741750 31 18272655627909971675
18186145 218 18334010605838403260
19026448 4 17203330052434518742
19422 9 18262235633396498622
20112054 13 18261960639852517669
23402539 116 17917419904754280916
23402655 69 18342175587850152860
23559900 14 18272652347050712654
5104073 3 18262231222728739616
53655031 270 18338796719555680992
633830 44 18411701006561801230
6430166 295 18412261709741047464
7364860 26 18197215845705560830

>  <PUBCHEM_SHAPE_MULTIPOLES>
267.3
7.84
2
0.7
0.14
0.33
0.01
-4.06
1.01
1.22
0.09
0.21
-0.04
-0.52

>  <PUBCHEM_SHAPE_SELFOVERLAP>
542.977

>  <PUBCHEM_SHAPE_VOLUME>
155.9

>  <PUBCHEM_COORDINATE_TYPE>
2
5
10

$$$$
