89542472
 OpenBabel01182520543D

 23 23  0  0  0  0  0  0  0  0999 V2000
    1.1745    2.0345   -1.1789 O   0  0  0  0  0  0  0  0  0  0  0  0
   -2.3522   -0.3822    0.1629 N   0  0  0  0  0  0  0  0  0  0  0  0
   -1.8414    1.9263    0.3141 N   0  0  0  0  0  0  0  0  0  0  0  0
    1.5076    1.8075    1.0785 N   0  0  0  0  0  0  0  0  0  0  0  0
    0.3480   -0.9612   -0.2708 C   0  0  0  0  0  0  0  0  0  0  0  0
    1.7831   -1.3020   -0.5054 C   0  0  0  0  0  0  0  0  0  0  0  0
   -0.0631    0.3544   -0.0867 C   0  0  0  0  0  0  0  0  0  0  0  0
   -0.5896   -1.9877   -0.2383 C   0  0  0  0  0  0  0  0  0  0  0  0
   -1.4123    0.5887    0.1248 C   0  0  0  0  0  0  0  0  0  0  0  0
    2.4532   -1.8732    0.7406 C   0  0  0  0  0  0  0  0  0  0  0  0
    0.9073    1.4434   -0.1208 C   0  0  0  0  0  0  0  0  0  0  0  0
   -1.9152   -1.6486   -0.0201 C   0  0  0  0  0  0  0  0  0  0  0  0
    1.8443   -2.0432   -1.3133 H   0  0  0  0  0  0  0  0  0  0  0  0
    2.3624   -0.4468   -0.8683 H   0  0  0  0  0  0  0  0  0  0  0  0
   -0.3059   -3.0252   -0.3789 H   0  0  0  0  0  0  0  0  0  0  0  0
    2.4276   -1.1558    1.5676 H   0  0  0  0  0  0  0  0  0  0  0  0
    3.5007   -2.1111    0.5293 H   0  0  0  0  0  0  0  0  0  0  0  0
    1.9607   -2.7918    1.0765 H   0  0  0  0  0  0  0  0  0  0  0  0
   -2.6854   -2.4120    0.0140 H   0  0  0  0  0  0  0  0  0  0  0  0
   -1.2077    2.5810    0.7555 H   0  0  0  0  0  0  0  0  0  0  0  0
   -2.8341    2.0648    0.4607 H   0  0  0  0  0  0  0  0  0  0  0  0
    1.2944    1.3375    1.9526 H   0  0  0  0  0  0  0  0  0  0  0  0
    2.1854    2.5615    1.1152 H   0  0  0  0  0  0  0  0  0  0  0  0
  1 11  2  0  0  0  0
  2  9  2  0  0  0  0
  2 12  1  0  0  0  0
  3  9  1  0  0  0  0
  3 20  1  0  0  0  0
  3 21  1  0  0  0  0
  4 11  1  0  0  0  0
  4 22  1  0  0  0  0
  4 23  1  0  0  0  0
  5  6  1  0  0  0  0
  5  7  2  0  0  0  0
  5  8  1  0  0  0  0
  6 10  1  0  0  0  0
  6 13  1  0  0  0  0
  6 14  1  0  0  0  0
  7  9  1  0  0  0  0
  7 11  1  0  0  0  0
  8 12  2  0  0  0  0
  8 15  1  0  0  0  0
 10 16  1  0  0  0  0
 10 17  1  0  0  0  0
 10 18  1  0  0  0  0
 12 19  1  0  0  0  0
M  END
>  <PUBCHEM_COMPOUND_CID>
89542472

>  <PUBCHEM_CONFORMER_RMSD>
0.6

>  <PUBCHEM_CONFORMER_DIVERSEORDER>
1
4
2
3

>  <PUBCHEM_MMFF94_PARTIAL_CHARGES>
17
1 -0.57
11 0.54
12 0.16
15 0.15
19 0.15
2 -0.62
20 0.4
21 0.4
22 0.37
23 0.37
3 -0.9
4 -0.8
5 -0.14
6 0.14
7 0.09
8 -0.15
9 0.41

>  <PUBCHEM_EFFECTIVE_ROTOR_COUNT>
2

>  <PUBCHEM_PHARMACOPHORE_FEATURES>
6
1 1 acceptor
1 10 hydrophobe
1 3 donor
1 4 donor
3 2 3 9 cation
6 2 5 7 8 9 12 rings

>  <PUBCHEM_HEAVY_ATOM_COUNT>
12

>  <PUBCHEM_ATOM_DEF_STEREO_COUNT>
0

>  <PUBCHEM_ATOM_UDEF_STEREO_COUNT>
0

>  <PUBCHEM_BOND_DEF_STEREO_COUNT>
0

>  <PUBCHEM_BOND_UDEF_STEREO_COUNT>
0

>  <PUBCHEM_ISOTOPIC_ATOM_COUNT>
0

>  <PUBCHEM_COMPONENT_COUNT>
1

>  <PUBCHEM_CACTVS_TAUTO_COUNT>
15

>  <PUBCHEM_CONFORMER_ID>
05564F4800000001

>  <PUBCHEM_MMFF94_ENERGY>
43.0906

>  <PUBCHEM_FEATURE_SELFOVERLAP>
30.446

>  <PUBCHEM_SHAPE_FINGERPRINT>
12423570 1 17825644901897292013
13380535 220 18337398140612032773
16945 1 18338236088678786582
193761 8 18411420635090959271
20511035 2 18413388748077831287
20588541 1 17835521518417725959
21040471 1 17763750192397508356
23552423 10 18191028000206193655
241688 4 18262796263729768737
2748010 2 17691981358086485615
5084963 1 16762002800757358863
54338 74 18263070020645376339

>  <PUBCHEM_SHAPE_MULTIPOLES>
226.14
2.94
2.71
0.85
0.63
0.67
-0.01
-0.89
0.59
-0.05
-0.08
0.3
0.29
-0.12

>  <PUBCHEM_SHAPE_SELFOVERLAP>
470.335

>  <PUBCHEM_SHAPE_VOLUME>
128.8

>  <PUBCHEM_COORDINATE_TYPE>
2
5
10

$$$$
