89996510
 OpenBabel01182520543D

 28 28  0  0  0  0  0  0  0  0999 V2000
    3.0459    0.5883   -1.6207 O   0  0  0  0  0  0  0  0  0  0  0  0
   -3.7347   -1.4650   -0.5240 O   0  0  0  0  0  0  0  0  0  0  0  0
    3.4248   -0.4199    0.4540 N   0  0  0  0  0  0  0  0  0  0  0  0
   -1.0274   -0.6638   -0.4782 N   0  0  0  0  0  0  0  0  0  0  0  0
   -2.8839    0.5618    0.3255 N   0  0  0  0  0  0  0  0  0  0  0  0
    1.1878    0.2883   -0.3017 C   0  0  0  0  0  0  0  0  0  0  0  0
    2.6336    0.1587   -0.5438 C   0  0  0  0  0  0  0  0  0  0  0  0
    0.6593    1.4255    0.2988 C   0  0  0  0  0  0  0  0  0  0  0  0
   -1.5046    0.4570    0.1083 C   0  0  0  0  0  0  0  0  0  0  0  0
   -0.7118    1.5193    0.5113 C   0  0  0  0  0  0  0  0  0  0  0  0
    0.3100   -0.7190   -0.6683 C   0  0  0  0  0  0  0  0  0  0  0  0
    4.8655   -0.5748    0.3086 C   0  0  0  0  0  0  0  0  0  0  0  0
    2.8595   -0.9080    1.7100 C   0  0  0  0  0  0  0  0  0  0  0  0
   -3.8779   -0.3693    0.0087 C   0  0  0  0  0  0  0  0  0  0  0  0
   -5.2462    0.1208    0.4114 C   0  0  0  0  0  0  0  0  0  0  0  0
    1.3069    2.2429    0.6041 H   0  0  0  0  0  0  0  0  0  0  0  0
   -1.1286    2.4051    0.9796 H   0  0  0  0  0  0  0  0  0  0  0  0
    0.6633   -1.6303   -1.1412 H   0  0  0  0  0  0  0  0  0  0  0  0
    5.3637   -0.0272    1.1135 H   0  0  0  0  0  0  0  0  0  0  0  0
    5.2057   -0.1849   -0.6541 H   0  0  0  0  0  0  0  0  0  0  0  0
    5.1159   -1.6375    0.3737 H   0  0  0  0  0  0  0  0  0  0  0  0
    3.0989   -1.9718    1.8042 H   0  0  0  0  0  0  0  0  0  0  0  0
    1.7797   -0.7913    1.7941 H   0  0  0  0  0  0  0  0  0  0  0  0
    3.3305   -0.3622    2.5335 H   0  0  0  0  0  0  0  0  0  0  0  0
   -3.1922    1.4244    0.7697 H   0  0  0  0  0  0  0  0  0  0  0  0
   -5.4672    1.0640   -0.0963 H   0  0  0  0  0  0  0  0  0  0  0  0
   -5.2814    0.2710    1.4941 H   0  0  0  0  0  0  0  0  0  0  0  0
   -6.0019   -0.6180    0.1304 H   0  0  0  0  0  0  0  0  0  0  0  0
  1  7  2  0  0  0  0
  2 14  2  0  0  0  0
  3  7  1  0  0  0  0
  3 12  1  0  0  0  0
  3 13  1  0  0  0  0
  4  9  2  0  0  0  0
  4 11  1  0  0  0  0
  5  9  1  0  0  0  0
  5 14  1  0  0  0  0
  5 25  1  0  0  0  0
  6  7  1  0  0  0  0
  6  8  1  0  0  0  0
  6 11  2  0  0  0  0
  8 10  2  0  0  0  0
  8 16  1  0  0  0  0
  9 10  1  0  0  0  0
 10 17  1  0  0  0  0
 11 18  1  0  0  0  0
 12 19  1  0  0  0  0
 12 20  1  0  0  0  0
 12 21  1  0  0  0  0
 13 22  1  0  0  0  0
 13 23  1  0  0  0  0
 13 24  1  0  0  0  0
 14 15  1  0  0  0  0
 15 26  1  0  0  0  0
 15 27  1  0  0  0  0
 15 28  1  0  0  0  0
M  END
>  <PUBCHEM_COMPOUND_CID>
89996510

>  <PUBCHEM_CONFORMER_RMSD>
0.6

>  <PUBCHEM_CONFORMER_DIVERSEORDER>
1
6
8
3
5
2
7
4

>  <PUBCHEM_MMFF94_PARTIAL_CHARGES>
19
1 -0.57
10 -0.15
11 0.16
12 0.3
13 0.3
14 0.57
15 0.06
16 0.15
17 0.15
18 0.15
2 -0.57
25 0.37
3 -0.66
4 -0.62
5 -0.55
6 0.09
7 0.54
8 -0.15
9 0.43

>  <PUBCHEM_EFFECTIVE_ROTOR_COUNT>
4

>  <PUBCHEM_PHARMACOPHORE_FEATURES>
4
1 1 acceptor
1 2 acceptor
1 5 donor
6 4 6 8 9 10 11 rings

>  <PUBCHEM_HEAVY_ATOM_COUNT>
15

>  <PUBCHEM_ATOM_DEF_STEREO_COUNT>
0

>  <PUBCHEM_ATOM_UDEF_STEREO_COUNT>
0

>  <PUBCHEM_BOND_DEF_STEREO_COUNT>
0

>  <PUBCHEM_BOND_UDEF_STEREO_COUNT>
0

>  <PUBCHEM_ISOTOPIC_ATOM_COUNT>
0

>  <PUBCHEM_COMPONENT_COUNT>
1

>  <PUBCHEM_CACTVS_TAUTO_COUNT>
9

>  <PUBCHEM_CONFORMER_ID>
055D3CDE00000001

>  <PUBCHEM_MMFF94_ENERGY>
43.8263

>  <PUBCHEM_FEATURE_SELFOVERLAP>
20.297

>  <PUBCHEM_SHAPE_FINGERPRINT>
10130415 120 18411699915313079433
11132069 177 17847064389386891103
11401426 45 18060418010870740013
11543360 7 16733551640529921799
12032990 46 17988652899420338421
12236239 1 18259988154367210440
124424 183 18408600371018367831
13581323 91 18343577413646379066
13705890 14 16298393478018489816
13760787 19 17967823789798689159
13760787 5 18259705627123480093
14115302 16 18040441022581126378
14252887 29 17275113820526476798
14289901 80 14548735097331973823
14943859 89 8502367845465968248
15342168 16 14907028631128474186
15375462 189 18334010597085133339
15477762 27 17022901221050959850
16945 1 18202847634219543653
18186145 218 14345792755836212981
19026448 4 15864077602060473405
19026448 5 17821733818815281165
19784866 240 17531528664256823338
200 152 17530963566539932008
20645477 70 16443346451321588498
21501925 9 18131346436199501097
22485316 2 18333728035428806025
22713019 99 14924225989102837472
22854114 59 16415480450038694563
23402539 116 17989479719321663743
23402655 69 11458689652508909675
23532345 42 17918277566789313452
23559900 14 17775295966954612780
4072396 5 18271236124044153003
42 15 18343300340847869794
449060 50 15697995249730047456
465052 167 18335147522342011499
5104073 3 18058454373577602811
69090 78 15913322498790979917

>  <PUBCHEM_SHAPE_MULTIPOLES>
282.01
9.25
1.24
1.09
4.34
0.17
-0.08
-2.55
-1.07
0.23
-0.1
-0.98
-0.11
-0.82

>  <PUBCHEM_SHAPE_SELFOVERLAP>
576.979

>  <PUBCHEM_SHAPE_VOLUME>
162.4

>  <PUBCHEM_COORDINATE_TYPE>
2
5
10

$$$$
