90244946
 OpenBabel01182520543D

 29 29  0  0  0  0  0  0  0  0999 V2000
    2.9073    1.4032    1.1190 O   0  0  0  0  0  0  0  0  0  0  0  0
    0.3345   -2.0997   -0.0211 N   0  0  0  0  0  0  0  0  0  0  0  0
    2.6853   -1.7935    0.0017 N   0  0  0  0  0  0  0  0  0  0  0  0
    2.9138    1.4546   -1.1736 N   0  0  0  0  0  0  0  0  0  0  0  0
   -2.5667    0.3786   -0.0004 C   0  0  0  0  0  0  0  0  0  0  0  0
   -1.1337   -0.1791    0.0006 C   0  0  0  0  0  0  0  0  0  0  0  0
   -3.6619   -0.7117   -0.0261 C   0  0  0  0  0  0  0  0  0  0  0  0
   -2.7959    1.2248    1.2705 C   0  0  0  0  0  0  0  0  0  0  0  0
   -2.7776    1.2661   -1.2462 C   0  0  0  0  0  0  0  0  0  0  0  0
   -0.0336    0.6709    0.0234 C   0  0  0  0  0  0  0  0  0  0  0  0
   -0.8981   -1.5444   -0.0209 C   0  0  0  0  0  0  0  0  0  0  0  0
    1.2505    0.1371    0.0239 C   0  0  0  0  0  0  0  0  0  0  0  0
    1.3795   -1.2423    0.0013 C   0  0  0  0  0  0  0  0  0  0  0  0
    2.3966    1.0355    0.0477 C   0  0  0  0  0  0  0  0  0  0  0  0
   -4.6628   -0.2631   -0.0257 H   0  0  0  0  0  0  0  0  0  0  0  0
   -3.5928   -1.3355   -0.9250 H   0  0  0  0  0  0  0  0  0  0  0  0
   -3.6052   -1.3649    0.8526 H   0  0  0  0  0  0  0  0  0  0  0  0
   -3.8217    1.6095    1.3102 H   0  0  0  0  0  0  0  0  0  0  0  0
   -2.6271    0.6303    2.1763 H   0  0  0  0  0  0  0  0  0  0  0  0
   -2.1267    2.0911    1.3166 H   0  0  0  0  0  0  0  0  0  0  0  0
   -3.8027    1.6524   -1.2879 H   0  0  0  0  0  0  0  0  0  0  0  0
   -2.1076    2.1329   -1.2543 H   0  0  0  0  0  0  0  0  0  0  0  0
   -2.5959    0.7013   -2.1683 H   0  0  0  0  0  0  0  0  0  0  0  0
   -0.1640    1.7497    0.0411 H   0  0  0  0  0  0  0  0  0  0  0  0
   -1.6897   -2.2838   -0.0395 H   0  0  0  0  0  0  0  0  0  0  0  0
    3.4319   -1.2714   -0.4402 H   0  0  0  0  0  0  0  0  0  0  0  0
    2.7488   -2.8043   -0.0107 H   0  0  0  0  0  0  0  0  0  0  0  0
    2.5142    1.1584   -2.0585 H   0  0  0  0  0  0  0  0  0  0  0  0
    3.7151    2.0754   -1.2156 H   0  0  0  0  0  0  0  0  0  0  0  0
  1 14  2  0  0  0  0
  2 11  2  0  0  0  0
  2 13  1  0  0  0  0
  3 13  1  0  0  0  0
  3 26  1  0  0  0  0
  3 27  1  0  0  0  0
  4 14  1  0  0  0  0
  4 28  1  0  0  0  0
  4 29  1  0  0  0  0
  5  6  1  0  0  0  0
  5  7  1  0  0  0  0
  5  8  1  0  0  0  0
  5  9  1  0  0  0  0
  6 10  2  0  0  0  0
  6 11  1  0  0  0  0
  7 15  1  0  0  0  0
  7 16  1  0  0  0  0
  7 17  1  0  0  0  0
  8 18  1  0  0  0  0
  8 19  1  0  0  0  0
  8 20  1  0  0  0  0
  9 21  1  0  0  0  0
  9 22  1  0  0  0  0
  9 23  1  0  0  0  0
 10 12  1  0  0  0  0
 10 24  1  0  0  0  0
 11 25  1  0  0  0  0
 12 13  2  0  0  0  0
 12 14  1  0  0  0  0
M  END
>  <PUBCHEM_COMPOUND_CID>
90244946

>  <PUBCHEM_CONFORMER_RMSD>
0.6

>  <PUBCHEM_CONFORMER_DIVERSEORDER>
2
3
5
1
4

>  <PUBCHEM_MMFF94_PARTIAL_CHARGES>
17
1 -0.57
10 -0.15
11 0.16
12 0.09
13 0.41
14 0.54
2 -0.62
24 0.15
25 0.15
26 0.4
27 0.4
28 0.37
29 0.37
3 -0.9
4 -0.8
5 0.14
6 -0.14

>  <PUBCHEM_EFFECTIVE_ROTOR_COUNT>
2

>  <PUBCHEM_PHARMACOPHORE_FEATURES>
7
1 1 acceptor
1 2 acceptor
1 3 cation
1 3 donor
1 4 donor
4 5 7 8 9 hydrophobe
6 2 6 10 11 12 13 rings

>  <PUBCHEM_HEAVY_ATOM_COUNT>
14

>  <PUBCHEM_ATOM_DEF_STEREO_COUNT>
0

>  <PUBCHEM_ATOM_UDEF_STEREO_COUNT>
0

>  <PUBCHEM_BOND_DEF_STEREO_COUNT>
0

>  <PUBCHEM_BOND_UDEF_STEREO_COUNT>
0

>  <PUBCHEM_ISOTOPIC_ATOM_COUNT>
0

>  <PUBCHEM_COMPONENT_COUNT>
1

>  <PUBCHEM_CACTVS_TAUTO_COUNT>
7

>  <PUBCHEM_CONFORMER_ID>
0561075200000002

>  <PUBCHEM_MMFF94_ENERGY>
57.5824

>  <PUBCHEM_FEATURE_SELFOVERLAP>
35.521

>  <PUBCHEM_SHAPE_FINGERPRINT>
10608611 8 18334570197037962093
12491281 212 18271257061708911129
12932764 1 17895761673397478019
13294875 104 15943413697008021285
13380535 21 18337686298626706866
13380535 76 18337950202971454362
14325111 11 18411136931131704017
14897335 6 18340760537496102958
15219456 202 18261387806926004397
15775835 57 18413396440427665765
16945 1 18266460003982523945
18186145 218 18341619174309454797
20510252 161 17837497718859613136
20645477 70 18340762646778960231
20671657 1 18410859875866245062
20715346 28 18040719134545618781
21028194 46 18408882957758624897
21501502 16 18411705374306397755
21524375 3 18337952397736496938
230 275 18411415111789487816
2334 1 18410574015353632127
23419403 2 16107753323097023929
23552423 10 18337673001587280523
2748010 2 18409453587161356143
3071541 158 18118405051391802982
5084963 1 18334858286243072963
53812653 166 18128813221464742688
63268167 104 18412823560399027977
7364860 26 18273214162637298382
8030462 33 18060696169953518905
81228 2 17762617695526822906

>  <PUBCHEM_SHAPE_MULTIPOLES>
267.3
5.56
1.98
0.98
0.91
0.59
0
-1.6
-0.03
-0.88
-0.04
0.25
-0.51
-0.03

>  <PUBCHEM_SHAPE_SELFOVERLAP>
553.491

>  <PUBCHEM_SHAPE_VOLUME>
153.6

>  <PUBCHEM_COORDINATE_TYPE>
2
5
10

$$$$
