90275756
 OpenBabel01182520543D

 20 20  0  0  0  0  0  0  0  0999 V2000
    2.1652    0.3447   -1.3695 O   0  0  0  0  0  0  0  0  0  0  0  0
   -2.5212   -0.5835   -0.3391 N   0  0  0  0  0  0  0  0  0  0  0  0
   -2.8806    1.7553   -0.0609 N   0  0  0  0  0  0  0  0  0  0  0  0
    3.8180    0.2960    0.2267 N   0  0  0  0  0  0  0  0  0  0  0  0
    0.1277   -0.2568    0.4920 C   0  0  0  0  0  0  0  0  0  0  0  0
    1.5404   -0.0833    0.9356 C   0  0  0  0  0  0  0  0  0  0  0  0
   -0.7227    0.8412    0.4229 C   0  0  0  0  0  0  0  0  0  0  0  0
   -0.3449   -1.5180    0.1461 C   0  0  0  0  0  0  0  0  0  0  0  0
   -2.0263    0.6266    0.0051 C   0  0  0  0  0  0  0  0  0  0  0  0
    2.5097    0.2050   -0.1995 C   0  0  0  0  0  0  0  0  0  0  0  0
   -1.6653   -1.6271   -0.2594 C   0  0  0  0  0  0  0  0  0  0  0  0
    1.6089    0.7371    1.6616 H   0  0  0  0  0  0  0  0  0  0  0  0
    1.8806   -0.9845    1.4620 H   0  0  0  0  0  0  0  0  0  0  0  0
   -0.3714    1.8343    0.6865 H   0  0  0  0  0  0  0  0  0  0  0  0
    0.2912   -2.3957    0.1867 H   0  0  0  0  0  0  0  0  0  0  0  0
   -2.0824   -2.5885   -0.5404 H   0  0  0  0  0  0  0  0  0  0  0  0
   -2.7002    2.5331    0.5618 H   0  0  0  0  0  0  0  0  0  0  0  0
   -3.8338    1.5926   -0.3611 H   0  0  0  0  0  0  0  0  0  0  0  0
    4.0802    0.1788    1.2002 H   0  0  0  0  0  0  0  0  0  0  0  0
    4.5685    0.4860   -0.4289 H   0  0  0  0  0  0  0  0  0  0  0  0
  1 10  2  0  0  0  0
  2  9  2  0  0  0  0
  2 11  1  0  0  0  0
  3  9  1  0  0  0  0
  3 17  1  0  0  0  0
  3 18  1  0  0  0  0
  4 10  1  0  0  0  0
  4 19  1  0  0  0  0
  4 20  1  0  0  0  0
  5  6  1  0  0  0  0
  5  7  2  0  0  0  0
  5  8  1  0  0  0  0
  6 10  1  0  0  0  0
  6 12  1  0  0  0  0
  6 13  1  0  0  0  0
  7  9  1  0  0  0  0
  7 14  1  0  0  0  0
  8 11  2  0  0  0  0
  8 15  1  0  0  0  0
 11 16  1  0  0  0  0
M  END
>  <PUBCHEM_COMPOUND_CID>
90275756

>  <PUBCHEM_CONFORMER_RMSD>
0.4

>  <PUBCHEM_CONFORMER_DIVERSEORDER>
2
13
10
23
16
19
25
28
21
24
7
11
4
15
22
27
17
20
12
9
14
5
26
18
8
3
6
1

>  <PUBCHEM_MMFF94_PARTIAL_CHARGES>
18
1 -0.57
10 0.57
11 0.16
14 0.15
15 0.15
16 0.15
17 0.4
18 0.4
19 0.37
2 -0.62
20 0.37
3 -0.9
4 -0.8
5 -0.14
6 0.2
7 -0.15
8 -0.15
9 0.41

>  <PUBCHEM_EFFECTIVE_ROTOR_COUNT>
2

>  <PUBCHEM_PHARMACOPHORE_FEATURES>
5
1 1 acceptor
1 3 donor
1 4 donor
3 2 3 9 cation
6 2 5 7 8 9 11 rings

>  <PUBCHEM_HEAVY_ATOM_COUNT>
11

>  <PUBCHEM_ATOM_DEF_STEREO_COUNT>
0

>  <PUBCHEM_ATOM_UDEF_STEREO_COUNT>
0

>  <PUBCHEM_BOND_DEF_STEREO_COUNT>
0

>  <PUBCHEM_BOND_UDEF_STEREO_COUNT>
0

>  <PUBCHEM_ISOTOPIC_ATOM_COUNT>
0

>  <PUBCHEM_COMPONENT_COUNT>
1

>  <PUBCHEM_CACTVS_TAUTO_COUNT>
15

>  <PUBCHEM_CONFORMER_ID>
05617FAC00000002

>  <PUBCHEM_MMFF94_ENERGY>
31.2727

>  <PUBCHEM_FEATURE_SELFOVERLAP>
25.372

>  <PUBCHEM_SHAPE_FINGERPRINT>
11206711 2 18341034294790934541
12138202 97 18060695087257614454
12716758 59 18343303656235529306
12897270 3 18343021129102509918
12932764 1 18272654584080061466
13024252 1 15502652732616010699
14325111 11 18410572860075748058
15775835 57 18260829263329648688
16945 1 18339634646332260323
19837323 101 18341338824856762323
20201158 50 17418379099241621670
20653085 51 18188506712806488876
21040471 1 18340758235546541875
23402539 116 18271794739921807900
23552423 10 18118397582074273474
23559900 14 18130504155349463610
29004967 10 16056885753509894002
3248919 1 17603866736612052970
369184 2 18272372000838212514
5084963 1 17386277796126948962
6333449 129 18273493489755528913

>  <PUBCHEM_SHAPE_MULTIPOLES>
205.56
4.76
1.47
0.87
2.83
0.18
0.09
-1.31
0.57
-1.36
0.04
0.42
-0.03
-0.16

>  <PUBCHEM_SHAPE_SELFOVERLAP>
424.698

>  <PUBCHEM_SHAPE_VOLUME>
116.6

>  <PUBCHEM_COORDINATE_TYPE>
2
5
10

$$$$
