90271760
 OpenBabel01182520543D

 20 20  0  0  0  0  0  0  0  0999 V2000
   -4.0883   -0.6828   -0.0093 I   0  0  0  0  0  0  0  0  0  0  0  0
    1.7830   -1.9584    1.1170 O   0  0  0  0  0  0  0  0  0  0  0  0
    1.8076    1.2739    0.0113 N   0  0  0  0  0  0  0  0  0  0  0  0
   -0.5162    1.7430   -0.0142 N   0  0  0  0  0  0  0  0  0  0  0  0
    1.8119   -1.9777   -1.1758 N   0  0  0  0  0  0  0  0  0  0  0  0
    0.2416   -0.5524    0.0238 C   0  0  0  0  0  0  0  0  0  0  0  0
    0.4665    0.8147    0.0065 C   0  0  0  0  0  0  0  0  0  0  0  0
   -1.0764   -0.9954    0.0193 C   0  0  0  0  0  0  0  0  0  0  0  0
   -2.1147   -0.0708   -0.0017 C   0  0  0  0  0  0  0  0  0  0  0  0
    1.3227   -1.5282    0.0461 C   0  0  0  0  0  0  0  0  0  0  0  0
   -1.7844    1.2748   -0.0178 C   0  0  0  0  0  0  0  0  0  0  0  0
    2.1468    2.6593   -0.0053 C   0  0  0  0  0  0  0  0  0  0  0  0
   -1.2862   -2.0628    0.0327 H   0  0  0  0  0  0  0  0  0  0  0  0
    2.5241    0.6135   -0.2694 H   0  0  0  0  0  0  0  0  0  0  0  0
   -2.5441    2.0506   -0.0346 H   0  0  0  0  0  0  0  0  0  0  0  0
    1.7459    3.1768    0.8724 H   0  0  0  0  0  0  0  0  0  0  0  0
    1.7716    3.1496   -0.9094 H   0  0  0  0  0  0  0  0  0  0  0  0
    3.2349    2.7769    0.0101 H   0  0  0  0  0  0  0  0  0  0  0  0
    1.4435   -1.6425   -2.0603 H   0  0  0  0  0  0  0  0  0  0  0  0
    2.5601   -2.6616   -1.2187 H   0  0  0  0  0  0  0  0  0  0  0  0
  1  9  1  0  0  0  0
  2 10  2  0  0  0  0
  3  7  1  0  0  0  0
  3 12  1  0  0  0  0
  3 14  1  0  0  0  0
  4  7  1  0  0  0  0
  4 11  2  0  0  0  0
  5 10  1  0  0  0  0
  5 19  1  0  0  0  0
  5 20  1  0  0  0  0
  6  7  2  0  0  0  0
  6  8  1  0  0  0  0
  6 10  1  0  0  0  0
  8  9  2  0  0  0  0
  8 13  1  0  0  0  0
  9 11  1  0  0  0  0
 11 15  1  0  0  0  0
 12 16  1  0  0  0  0
 12 17  1  0  0  0  0
 12 18  1  0  0  0  0
M  END
>  <PUBCHEM_COMPOUND_CID>
90271760

>  <PUBCHEM_CONFORMER_RMSD>
0.6

>  <PUBCHEM_CONFORMER_DIVERSEORDER>
1
4
2
3

>  <PUBCHEM_MMFF94_PARTIAL_CHARGES>
17
1 -0.08
10 0.54
11 0.16
12 0.37
13 0.15
14 0.4
15 0.15
19 0.37
2 -0.57
20 0.37
3 -0.87
4 -0.62
5 -0.8
6 0.09
7 0.41
8 -0.15
9 0.08

>  <PUBCHEM_EFFECTIVE_ROTOR_COUNT>
2

>  <PUBCHEM_PHARMACOPHORE_FEATURES>
7
1 1 hydrophobe
1 2 acceptor
1 3 cation
1 3 donor
1 4 acceptor
1 5 donor
6 4 6 7 8 9 11 rings

>  <PUBCHEM_HEAVY_ATOM_COUNT>
12

>  <PUBCHEM_ATOM_DEF_STEREO_COUNT>
0

>  <PUBCHEM_ATOM_UDEF_STEREO_COUNT>
0

>  <PUBCHEM_BOND_DEF_STEREO_COUNT>
0

>  <PUBCHEM_BOND_UDEF_STEREO_COUNT>
0

>  <PUBCHEM_ISOTOPIC_ATOM_COUNT>
0

>  <PUBCHEM_COMPONENT_COUNT>
1

>  <PUBCHEM_CACTVS_TAUTO_COUNT>
7

>  <PUBCHEM_CONFORMER_ID>
0561701000000001

>  <PUBCHEM_MMFF94_ENERGY>
44.8436

>  <PUBCHEM_FEATURE_SELFOVERLAP>
35.521

>  <PUBCHEM_SHAPE_FINGERPRINT>
1 1 18265892638892594708
10980938 120 18341613776057647047
12423570 1 18129644336307269115
13380535 76 18192709166623049171
161256 15 18409736148922840421
16945 1 18409727374146327521
17990270 104 18341614754898948351
19021347 11 18265329680523149521
193761 8 18338516331264101569
20645476 183 17173215678785470892
20645477 70 18412257351251517279
20653091 64 18338235968482980163
20871998 22 18270121184582912295
21501502 16 18411139096032909921
21501925 9 18338503175989952459
21524375 3 18123185968198665360
21650355 55 17612849531720492506
23552423 10 18335143068239054565
2748010 2 18266731390250134333
3071541 250 18341062812883292887
3071541 37 18262237836603932301
366044 4 18122625225900684192
528862 383 18410006676080615439
7364860 26 18343023302213523948
81228 2 17549535206748783985
81539 233 18189611820845204093

>  <PUBCHEM_SHAPE_MULTIPOLES>
238.08
4.81
2.57
0.79
5.16
0.01
-0.02
-0.43
-0.04
-2.56
-0.03
-0.15
0.36
0.02

>  <PUBCHEM_SHAPE_SELFOVERLAP>
471.855

>  <PUBCHEM_SHAPE_VOLUME>
146

>  <PUBCHEM_COORDINATE_TYPE>
2
5
10

$$$$
