90405501
 OpenBabel01182520543D

 30 30  0  0  1  0  0  0  0  0999 V2000
    4.0035    0.6100   -0.4158 O   0  0  0  0  0  0  0  0  0  0  0  0
   -0.5068   -0.5623    0.3111 N   0  3  0  0  0  0  0  0  0  0  0  0
   -2.1613   -1.5263    1.8449 N   0  0  0  0  0  0  0  0  0  0  0  0
    2.8384    1.7118    1.2235 N   0  0  0  0  0  0  0  0  0  0  0  0
   -1.7846   -0.3222    1.0935 C   0  0  2  0  0  0  0  0  0  0  0  0
   -2.9706    0.1154    0.2082 C   0  0  0  0  0  0  0  0  0  0  0  0
   -2.7055    1.4291   -0.5364 C   0  0  0  0  0  0  0  0  0  0  0  0
    0.5770    0.1700    0.6026 C   0  0  0  0  0  0  0  0  0  0  0  0
   -0.5028   -1.4992   -0.6470 C   0  0  0  0  0  0  0  0  0  0  0  0
   -3.9282    1.8769   -1.3228 C   0  0  0  0  0  0  0  0  0  0  0  0
    1.7588   -0.0281   -0.0968 C   0  0  0  0  0  0  0  0  0  0  0  0
    0.6511   -1.7411   -1.3786 C   0  0  0  0  0  0  0  0  0  0  0  0
    1.7918   -0.9950   -1.0971 C   0  0  0  0  0  0  0  0  0  0  0  0
    2.9391    0.7609    0.2110 C   0  0  0  0  0  0  0  0  0  0  0  0
   -1.5808    0.4712    1.8216 H   0  0  0  0  0  0  0  0  0  0  0  0
   -3.2240   -0.6647   -0.5199 H   0  0  0  0  0  0  0  0  0  0  0  0
   -3.8566    0.2460    0.8440 H   0  0  0  0  0  0  0  0  0  0  0  0
   -1.8625    1.3091   -1.2257 H   0  0  0  0  0  0  0  0  0  0  0  0
   -2.4322    2.2127    0.1797 H   0  0  0  0  0  0  0  0  0  0  0  0
    0.4383    0.8901    1.3939 H   0  0  0  0  0  0  0  0  0  0  0  0
   -1.4154   -2.0533   -0.8267 H   0  0  0  0  0  0  0  0  0  0  0  0
   -1.3649   -1.8492    2.3923 H   0  0  0  0  0  0  0  0  0  0  0  0
   -2.4042   -2.2817    1.2066 H   0  0  0  0  0  0  0  0  0  0  0  0
   -4.7827    2.0432   -0.6592 H   0  0  0  0  0  0  0  0  0  0  0  0
   -3.7185    2.8142   -1.8476 H   0  0  0  0  0  0  0  0  0  0  0  0
   -4.2116    1.1263   -2.0675 H   0  0  0  0  0  0  0  0  0  0  0  0
    0.6638   -2.4978   -2.1556 H   0  0  0  0  0  0  0  0  0  0  0  0
    2.6952   -1.1848   -1.6704 H   0  0  0  0  0  0  0  0  0  0  0  0
    2.0112    1.8995    1.7755 H   0  0  0  0  0  0  0  0  0  0  0  0
    3.6462    2.2818    1.4545 H   0  0  0  0  0  0  0  0  0  0  0  0
  1 14  2  0  0  0  0
  2  5  1  0  0  0  0
  2  8  1  0  0  0  0
  2  9  2  0  0  0  0
  3  5  1  0  0  0  0
  3 22  1  0  0  0  0
  3 23  1  0  0  0  0
  4 14  1  0  0  0  0
  4 29  1  0  0  0  0
  4 30  1  0  0  0  0
  5  6  1  0  0  0  0
  5 15  1  1  0  0  0
  6  7  1  0  0  0  0
  6 16  1  0  0  0  0
  6 17  1  0  0  0  0
  7 10  1  0  0  0  0
  7 18  1  0  0  0  0
  7 19  1  0  0  0  0
  8 11  2  0  0  0  0
  8 20  1  0  0  0  0
  9 12  1  0  0  0  0
  9 21  1  0  0  0  0
 10 24  1  0  0  0  0
 10 25  1  0  0  0  0
 10 26  1  0  0  0  0
 11 13  1  0  0  0  0
 11 14  1  0  0  0  0
 12 13  2  0  0  0  0
 12 27  1  0  0  0  0
 13 28  1  0  0  0  0
M  CHG  1   2   1
M  END
>  <PUBCHEM_COMPOUND_CID>
90405501

>  <PUBCHEM_CONFORMER_RMSD>
0.6

>  <PUBCHEM_CONFORMER_DIVERSEORDER>
2
22
29
15
18
19
31
6
28
13
24
3
20
16
26
14
38
21
27
23
7
17
25
33
11
36
4
12
34
35
32
30
37
5
10
1
9
8

>  <PUBCHEM_MMFF94_PARTIAL_CHARGES>
19
1 -0.57
11 0.09
12 -0.15
13 -0.15
14 0.54
2 -0.21
20 0.15
21 0.15
22 0.36
23 0.36
27 0.15
28 0.15
29 0.37
3 -0.99
30 0.37
4 -0.8
5 0.76
8 0.21
9 0.21

>  <PUBCHEM_EFFECTIVE_ROTOR_COUNT>
4

>  <PUBCHEM_PHARMACOPHORE_FEATURES>
6
1 1 acceptor
1 10 hydrophobe
1 3 cation
1 3 donor
1 4 donor
6 2 8 9 11 12 13 rings

>  <PUBCHEM_HEAVY_ATOM_COUNT>
14

>  <PUBCHEM_ATOM_DEF_STEREO_COUNT>
0

>  <PUBCHEM_ATOM_UDEF_STEREO_COUNT>
1

>  <PUBCHEM_BOND_DEF_STEREO_COUNT>
0

>  <PUBCHEM_BOND_UDEF_STEREO_COUNT>
0

>  <PUBCHEM_ISOTOPIC_ATOM_COUNT>
0

>  <PUBCHEM_COMPONENT_COUNT>
1

>  <PUBCHEM_CACTVS_TAUTO_COUNT>
2

>  <PUBCHEM_CONFORMER_ID>
05637A7D00000002

>  <PUBCHEM_MMFF94_ENERGY>
30.6238

>  <PUBCHEM_FEATURE_SELFOVERLAP>
30.446

>  <PUBCHEM_SHAPE_FINGERPRINT>
11086676 242 13551473618395599774
12119455 92 18341320116000313492
12138202 97 18410290311521042487
12251169 10 13334745604548402237
124424 183 18409165476876599314
12500047 106 17967534553816107394
13294875 104 17536586305843178691
13296909 8 17095522932962144631
13571099 52 18334010554135369239
13839132 238 18114184077744736591
14614273 12 17987517198403810407
15219456 202 18338807723230244695
15279308 16 18335708230047794801
15852999 172 18334576789712404547
16945 1 18118692247038241170
17357990 137 15720260287267810007
18186145 218 17632581573650905136
18219364 16 18059017301328193496
20715346 28 18338814376002795314
20871999 31 13686292466230048889
21639500 275 17775565334012301272
21947302 44 18266455395730567797
22096605 113 18130497557446279613
228727 97 15913325793157567547
22959321 8 18202557371924465553
231179 274 18412263926387082564
23382010 3 17273956077885069229
23402539 116 18040994098853354383
23493267 7 18187369822194439200
23557571 272 18261685834880623573
25 1 18131355171957168357
2748010 2 17487340584684446082
305870 269 17459182985107940771
8030462 33 16128374835590737595
81228 2 17338991271661595558
88987 49 17531827791295860831

>  <PUBCHEM_SHAPE_MULTIPOLES>
267.3
6.14
1.89
1.44
0.76
0
0.22
-4.14
-1.07
0.22
-0.28
0.75
0.3
1.79

>  <PUBCHEM_SHAPE_SELFOVERLAP>
539.866

>  <PUBCHEM_SHAPE_VOLUME>
156.8

>  <PUBCHEM_COORDINATE_TYPE>
2
5
10

$$$$
