90876994
 OpenBabel01182520543D

 19 20  0  0  0  0  0  0  0  0999 V2000
   -0.6131    2.6438   -0.0007 O   0  0  0  0  0  0  0  0  0  0  0  0
   -0.9324   -1.3671   -0.0012 N   0  0  0  0  0  0  0  0  0  0  0  0
    1.4349   -1.6552    0.0000 N   0  0  0  0  0  0  0  0  0  0  0  0
   -3.3187   -1.2170    0.0006 N   0  0  0  0  0  0  0  0  0  0  0  0
    0.5122    0.5625    0.0001 C   0  0  0  0  0  0  0  0  0  0  0  0
    0.3619   -0.8271   -0.0003 C   0  0  0  0  0  0  0  0  0  0  0  0
   -0.6918    1.4222    0.0000 C   0  0  0  0  0  0  0  0  0  0  0  0
   -2.0880   -0.6076    0.0000 C   0  0  0  0  0  0  0  0  0  0  0  0
   -2.0126    0.7402    0.0007 C   0  0  0  0  0  0  0  0  0  0  0  0
    1.7903    1.1185    0.0004 C   0  0  0  0  0  0  0  0  0  0  0  0
    2.8930    0.2758    0.0002 C   0  0  0  0  0  0  0  0  0  0  0  0
    2.6643   -1.0891    0.0003 C   0  0  0  0  0  0  0  0  0  0  0  0
   -1.0308   -2.3738   -0.0016 H   0  0  0  0  0  0  0  0  0  0  0  0
   -2.8960    1.3703    0.0016 H   0  0  0  0  0  0  0  0  0  0  0  0
    1.9408    2.1939    0.0005 H   0  0  0  0  0  0  0  0  0  0  0  0
    3.9011    0.6743    0.0003 H   0  0  0  0  0  0  0  0  0  0  0  0
    3.4927   -1.7901    0.0004 H   0  0  0  0  0  0  0  0  0  0  0  0
   -4.1660   -0.6629    0.0016 H   0  0  0  0  0  0  0  0  0  0  0  0
   -3.3659   -2.2279    0.0001 H   0  0  0  0  0  0  0  0  0  0  0  0
  1  7  2  0  0  0  0
  2  6  1  0  0  0  0
  2  8  1  0  0  0  0
  2 13  1  0  0  0  0
  3  6  1  0  0  0  0
  3 12  2  0  0  0  0
  4  8  1  0  0  0  0
  4 18  1  0  0  0  0
  4 19  1  0  0  0  0
  5  6  2  0  0  0  0
  5  7  1  0  0  0  0
  5 10  1  0  0  0  0
  7  9  1  0  0  0  0
  8  9  2  0  0  0  0
  9 14  1  0  0  0  0
 10 11  2  0  0  0  0
 10 15  1  0  0  0  0
 11 12  1  0  0  0  0
 11 16  1  0  0  0  0
 12 17  1  0  0  0  0
M  END
>  <PUBCHEM_COMPOUND_CID>
90876994

>  <PUBCHEM_CONFORMER_RMSD>
0.4

>  <PUBCHEM_CONFORMER_DIVERSEORDER>
1

>  <PUBCHEM_MMFF94_PARTIAL_CHARGES>
19
1 -0.57
10 -0.15
11 -0.15
12 0.16
13 0.4
14 0.15
15 0.15
16 0.15
17 0.15
18 0.4
19 0.4
2 -0.6
3 -0.62
4 -0.9
5 0.09
6 0.41
7 0.47
8 0.2
9 -0.14

>  <PUBCHEM_EFFECTIVE_ROTOR_COUNT>
0

>  <PUBCHEM_PHARMACOPHORE_FEATURES>
8
1 1 acceptor
1 2 cation
1 2 donor
1 3 acceptor
1 4 cation
1 4 donor
6 2 5 6 7 8 9 rings
6 3 5 6 10 11 12 rings

>  <PUBCHEM_HEAVY_ATOM_COUNT>
12

>  <PUBCHEM_ATOM_DEF_STEREO_COUNT>
0

>  <PUBCHEM_ATOM_UDEF_STEREO_COUNT>
0

>  <PUBCHEM_BOND_DEF_STEREO_COUNT>
0

>  <PUBCHEM_BOND_UDEF_STEREO_COUNT>
0

>  <PUBCHEM_ISOTOPIC_ATOM_COUNT>
0

>  <PUBCHEM_COMPONENT_COUNT>
1

>  <PUBCHEM_CACTVS_TAUTO_COUNT>
15

>  <PUBCHEM_CONFORMER_ID>
056AAC4200000001

>  <PUBCHEM_MMFF94_ENERGY>
37.1364

>  <PUBCHEM_FEATURE_SELFOVERLAP>
40.689

>  <PUBCHEM_SHAPE_FINGERPRINT>
10967382 1 18194682793983815206
11206711 2 18337113362942680236
12032990 46 18410300245537843891
12897270 3 18410572868591836076
13380535 76 17908134387387062821
14325111 11 18410856559724348000
161256 15 18341893017387782104
16945 1 18266741272948490948
193761 8 17978510832335554371
19973954 147 18339081458760128076
20201158 50 18334855056158829459
20871998 184 18201998785504596135
21040471 1 17978228258126712832
21501502 16 18338239250075344856
2334 1 18410575102053990149
23463225 33 18409450297152778958
23552423 10 18260833665718372502
23559900 14 17478895983724420758
241688 4 18410012113351093409
2748010 2 18411133628117302173
5084963 1 18272932687444017754
528886 8 18339639061400307122

>  <PUBCHEM_SHAPE_MULTIPOLES>
226.14
4.11
2.05
0.59
0.22
0.75
0
-1.32
0
0.34
0
-0.03
0.01
0

>  <PUBCHEM_SHAPE_SELFOVERLAP>
494.106

>  <PUBCHEM_SHAPE_VOLUME>
121.3

>  <PUBCHEM_COORDINATE_TYPE>
2
5
10

$$$$
