90954548
 OpenBabel01182520543D

 29 29  0  0  0  0  0  0  0  0999 V2000
    3.6526   -1.5686    0.1931 O   0  0  0  0  0  0  0  0  0  0  0  0
   -2.8589   -0.2094   -0.1186 N   0  0  0  0  0  0  0  0  0  0  0  0
   -2.2310    0.6034    0.5899 N   0  0  0  0  0  0  0  0  0  0  0  0
   -0.4777   -0.8829    0.1665 N   0  0  0  0  0  0  0  0  0  0  0  0
    4.0538    0.6154   -0.4747 N   0  0  0  0  0  0  0  0  0  0  0  0
   -4.3084   -0.0221    0.0061 C   0  0  0  0  0  0  0  0  0  0  0  0
   -4.7659    0.9948   -1.0291 C   0  0  0  0  0  0  0  0  0  0  0  0
   -4.9978   -1.3656   -0.1801 C   0  0  0  0  0  0  0  0  0  0  0  0
    1.8142   -0.1142    0.1367 C   0  0  0  0  0  0  0  0  0  0  0  0
   -0.8509    0.3874    0.4397 C   0  0  0  0  0  0  0  0  0  0  0  0
    1.3915    1.1802    0.4183 C   0  0  0  0  0  0  0  0  0  0  0  0
    0.0351    1.4441    0.5743 C   0  0  0  0  0  0  0  0  0  0  0  0
    0.8487   -1.1012    0.0217 C   0  0  0  0  0  0  0  0  0  0  0  0
    3.2236   -0.4219   -0.0315 C   0  0  0  0  0  0  0  0  0  0  0  0
    5.4710    0.4606   -0.7121 C   0  0  0  0  0  0  0  0  0  0  0  0
   -4.5660    0.3506    1.0070 H   0  0  0  0  0  0  0  0  0  0  0  0
   -4.5187    0.6661   -2.0447 H   0  0  0  0  0  0  0  0  0  0  0  0
   -5.8487    1.1479   -0.9744 H   0  0  0  0  0  0  0  0  0  0  0  0
   -4.2798    1.9633   -0.8696 H   0  0  0  0  0  0  0  0  0  0  0  0
   -4.7755   -1.7931   -1.1641 H   0  0  0  0  0  0  0  0  0  0  0  0
   -6.0841   -1.2653   -0.0882 H   0  0  0  0  0  0  0  0  0  0  0  0
   -4.6566   -2.0826    0.5744 H   0  0  0  0  0  0  0  0  0  0  0  0
    2.0880    2.0028    0.5503 H   0  0  0  0  0  0  0  0  0  0  0  0
   -0.3088    2.4478    0.8002 H   0  0  0  0  0  0  0  0  0  0  0  0
    1.1090   -2.1316   -0.2007 H   0  0  0  0  0  0  0  0  0  0  0  0
    3.6522    1.5127   -0.7251 H   0  0  0  0  0  0  0  0  0  0  0  0
    5.9615    1.4175   -0.5195 H   0  0  0  0  0  0  0  0  0  0  0  0
    5.6147    0.1763   -1.7575 H   0  0  0  0  0  0  0  0  0  0  0  0
    5.8868   -0.3123   -0.0611 H   0  0  0  0  0  0  0  0  0  0  0  0
  1 14  2  0  0  0  0
  2  3  2  0  0  0  0
  2  6  1  0  0  0  0
  3 10  1  0  0  0  0
  4 10  2  0  0  0  0
  4 13  1  0  0  0  0
  5 14  1  0  0  0  0
  5 15  1  0  0  0  0
  5 26  1  0  0  0  0
  6  7  1  0  0  0  0
  6  8  1  0  0  0  0
  6 16  1  0  0  0  0
  7 17  1  0  0  0  0
  7 18  1  0  0  0  0
  7 19  1  0  0  0  0
  8 20  1  0  0  0  0
  8 21  1  0  0  0  0
  8 22  1  0  0  0  0
  9 11  1  0  0  0  0
  9 13  2  0  0  0  0
  9 14  1  0  0  0  0
 10 12  1  0  0  0  0
 11 12  2  0  0  0  0
 11 23  1  0  0  0  0
 12 24  1  0  0  0  0
 13 25  1  0  0  0  0
 15 27  1  0  0  0  0
 15 28  1  0  0  0  0
 15 29  1  0  0  0  0
M  END
>  <PUBCHEM_COMPOUND_CID>
90954548

>  <PUBCHEM_CONFORMER_RMSD>
0.6

>  <PUBCHEM_CONFORMER_DIVERSEORDER>
2
23
4
9
11
13
16
14
15
3
6
17
7
12
5
21
20
8
10
18
1
22
19

>  <PUBCHEM_MMFF94_PARTIAL_CHARGES>
17
1 -0.57
10 0.49
11 -0.15
12 -0.15
13 0.16
14 0.54
15 0.3
2 -0.25
23 0.15
24 0.15
25 0.15
26 0.37
3 -0.18
4 -0.62
5 -0.73
6 0.25
9 0.09

>  <PUBCHEM_EFFECTIVE_ROTOR_COUNT>
4

>  <PUBCHEM_PHARMACOPHORE_FEATURES>
5
1 1 acceptor
1 5 donor
3 3 4 10 cation
3 6 7 8 hydrophobe
6 4 9 10 11 12 13 rings

>  <PUBCHEM_HEAVY_ATOM_COUNT>
15

>  <PUBCHEM_ATOM_DEF_STEREO_COUNT>
0

>  <PUBCHEM_ATOM_UDEF_STEREO_COUNT>
0

>  <PUBCHEM_BOND_DEF_STEREO_COUNT>
0

>  <PUBCHEM_BOND_UDEF_STEREO_COUNT>
0

>  <PUBCHEM_ISOTOPIC_ATOM_COUNT>
0

>  <PUBCHEM_COMPONENT_COUNT>
1

>  <PUBCHEM_CACTVS_TAUTO_COUNT>
2

>  <PUBCHEM_CONFORMER_ID>
056BDB3400000002

>  <PUBCHEM_MMFF94_ENERGY>
30.0838

>  <PUBCHEM_FEATURE_SELFOVERLAP>
25.371

>  <PUBCHEM_SHAPE_FINGERPRINT>
11089746 13 13479128046969578639
11287383 113 17240491337433949545
11401426 45 18412258436991701272
114248 4 17967816063189187061
11471102 20 18410011022692936096
11806522 49 18342739628292659609
12032990 46 18343865511167306643
12119455 92 14562528500756515618
12670543 26 18339646642202136172
13533116 47 15719379613394182616
13690532 89 18342175552941872611
13760787 5 18338244769002825400
13862211 1 18272930522780844750
14251718 22 18334015029195827495
14252887 29 17060346214220327590
14350574 20 18339364171135962347
14576447 43 18272082837843876215
14911166 2 18341897406817932876
14993402 34 18202284705951727916
15048467 5 17603868909833862884
15501527 24 18411707620816808996
17834072 33 18410856598410585428
18222031 100 16988836172657069576
200 152 18060416911343242585
20645477 70 18335984164723052090
20871999 31 18259699017390318477
21267235 1 18201166523853404230
21637258 2 15410614736264080012
221490 88 18194965373326543715
22485316 2 18408882923599405083
23402539 116 17240479208752182933
23402655 69 18410853231409530357
23559900 14 18201433731392012600
42 15 11743841360814526316
4990 188 18059863865257397324

>  <PUBCHEM_SHAPE_MULTIPOLES>
282.9
11.16
1.39
0.79
2.04
0.12
-0.08
0.88
-3.57
0.17
0.07
0.14
-0.16
0.04

>  <PUBCHEM_SHAPE_SELFOVERLAP>
574.766

>  <PUBCHEM_SHAPE_VOLUME>
164.6

>  <PUBCHEM_COORDINATE_TYPE>
2
5
10

$$$$
