91205842
 OpenBabel01182520543D

 29 30  0  0  0  0  0  0  0  0999 V2000
   -0.7241    1.8704    0.3664 O   0  0  0  0  0  0  0  0  0  0  0  0
   -0.3281   -0.2328    1.2589 N   0  0  0  0  0  0  0  0  0  0  0  0
    4.1348   -0.7348   -0.9825 N   0  0  0  0  0  0  0  0  0  0  0  0
    4.3724    1.6059   -1.3583 N   0  0  0  0  0  0  0  0  0  0  0  0
   -3.8255   -1.5563   -0.6439 N   0  0  0  0  0  0  0  0  0  0  0  0
    0.9727    0.0632    1.8149 C   0  0  0  0  0  0  0  0  0  0  0  0
    2.0781   -0.2153    0.8377 C   0  0  0  0  0  0  0  0  0  0  0  0
    2.7176    0.8350    0.1887 C   0  0  0  0  0  0  0  0  0  0  0  0
    2.4657   -1.5250    0.5777 C   0  0  0  0  0  0  0  0  0  0  0  0
   -1.1043    0.7012    0.5609 C   0  0  0  0  0  0  0  0  0  0  0  0
   -2.4023    0.2572    0.0844 C   0  0  0  0  0  0  0  0  0  0  0  0
    3.7307    0.5249   -0.7042 C   0  0  0  0  0  0  0  0  0  0  0  0
    3.4901   -1.7296   -0.3326 C   0  0  0  0  0  0  0  0  0  0  0  0
   -3.4444    1.1591   -0.1005 C   0  0  0  0  0  0  0  0  0  0  0  0
   -2.6419   -1.0777   -0.1991 C   0  0  0  0  0  0  0  0  0  0  0  0
   -4.6768    0.7048   -0.5568 C   0  0  0  0  0  0  0  0  0  0  0  0
   -4.8147   -0.6501   -0.8116 C   0  0  0  0  0  0  0  0  0  0  0  0
    1.1004   -0.5553    2.7107 H   0  0  0  0  0  0  0  0  0  0  0  0
    0.9941    1.1090    2.1428 H   0  0  0  0  0  0  0  0  0  0  0  0
   -0.6910   -1.1636    1.4352 H   0  0  0  0  0  0  0  0  0  0  0  0
    2.4293    1.8648    0.3769 H   0  0  0  0  0  0  0  0  0  0  0  0
    1.9878   -2.3674    1.0662 H   0  0  0  0  0  0  0  0  0  0  0  0
    3.8297   -2.7323   -0.5705 H   0  0  0  0  0  0  0  0  0  0  0  0
   -3.3164    2.2176    0.1092 H   0  0  0  0  0  0  0  0  0  0  0  0
   -1.8784   -1.8435   -0.1106 H   0  0  0  0  0  0  0  0  0  0  0  0
   -5.5036    1.3894   -0.7073 H   0  0  0  0  0  0  0  0  0  0  0  0
   -5.7558   -1.0549   -1.1689 H   0  0  0  0  0  0  0  0  0  0  0  0
    3.8471    2.4586   -1.5083 H   0  0  0  0  0  0  0  0  0  0  0  0
    5.1078    1.3741   -2.0146 H   0  0  0  0  0  0  0  0  0  0  0  0
  1 10  2  0  0  0  0
  2  6  1  0  0  0  0
  2 10  1  0  0  0  0
  2 20  1  0  0  0  0
  3 12  2  0  0  0  0
  3 13  1  0  0  0  0
  4 12  1  0  0  0  0
  4 28  1  0  0  0  0
  4 29  1  0  0  0  0
  5 15  1  0  0  0  0
  5 17  2  0  0  0  0
  6  7  1  0  0  0  0
  6 18  1  0  0  0  0
  6 19  1  0  0  0  0
  7  8  2  0  0  0  0
  7  9  1  0  0  0  0
  8 12  1  0  0  0  0
  8 21  1  0  0  0  0
  9 13  2  0  0  0  0
  9 22  1  0  0  0  0
 10 11  1  0  0  0  0
 11 14  1  0  0  0  0
 11 15  2  0  0  0  0
 13 23  1  0  0  0  0
 14 16  2  0  0  0  0
 14 24  1  0  0  0  0
 15 25  1  0  0  0  0
 16 17  1  0  0  0  0
 16 26  1  0  0  0  0
 17 27  1  0  0  0  0
M  END
>  <PUBCHEM_COMPOUND_CID>
91205842

>  <PUBCHEM_CONFORMER_RMSD>
0.6

>  <PUBCHEM_CONFORMER_DIVERSEORDER>
1
53
9
31
36
52
7
58
45
41
37
6
26
10
54
62
29
11
3
34
32
39
51
5
35
2
50
8
12
47
38
30
33
46
4
43
25
40
57
56
44
59
18
27
13
55
42
28
49
17
24
15
48
14
20
22
16
19
60
21
61
23

>  <PUBCHEM_MMFF94_PARTIAL_CHARGES>
27
1 -0.57
10 0.54
11 0.09
12 0.41
13 0.16
14 -0.15
15 0.16
16 -0.15
17 0.16
2 -0.73
20 0.37
21 0.15
22 0.15
23 0.15
24 0.15
25 0.15
26 0.15
27 0.15
28 0.4
29 0.4
3 -0.62
4 -0.9
5 -0.62
6 0.44
7 -0.14
8 -0.15
9 -0.15

>  <PUBCHEM_EFFECTIVE_ROTOR_COUNT>
4

>  <PUBCHEM_PHARMACOPHORE_FEATURES>
7
1 1 acceptor
1 2 donor
1 4 donor
1 5 acceptor
3 3 4 12 cation
6 3 7 8 9 12 13 rings
6 5 11 14 15 16 17 rings

>  <PUBCHEM_HEAVY_ATOM_COUNT>
17

>  <PUBCHEM_ATOM_DEF_STEREO_COUNT>
0

>  <PUBCHEM_ATOM_UDEF_STEREO_COUNT>
0

>  <PUBCHEM_BOND_DEF_STEREO_COUNT>
0

>  <PUBCHEM_BOND_UDEF_STEREO_COUNT>
0

>  <PUBCHEM_ISOTOPIC_ATOM_COUNT>
0

>  <PUBCHEM_COMPONENT_COUNT>
1

>  <PUBCHEM_CACTVS_TAUTO_COUNT>
4

>  <PUBCHEM_CONFORMER_ID>
056FB0D200000001

>  <PUBCHEM_MMFF94_ENERGY>
49.956

>  <PUBCHEM_FEATURE_SELFOVERLAP>
35.521

>  <PUBCHEM_SHAPE_FINGERPRINT>
10465860 71 18411414029642475601
10498660 4 16805323305562307997
10759866 29 18413109472309519062
11128504 68 18113618988797381567
11543360 7 18408042922300874225
12251169 10 9727341425272745544
12363563 72 16272209682328971818
12616999 72 18412543223725891642
12670546 177 18333168370903748845
12670546 56 9583516495292049613
12707595 3 16773792610533480650
12892183 10 10087630503210564990
13675066 3 12535346800934167571
14251758 9 13973697100585558371
14252887 29 14620789388840770514
14366163 111 17821725014148096533
15188451 53 12679160714587954789
15239191 94 17060333037360838223
15527383 91 10375877359916591510
16752209 62 17131551626838720179
17804303 29 17704066309646572321
17959699 21 17749387036007899549
1813 80 14836127658624202192
18186145 218 16950564363385342051
18915474 69 18413387635459839982
193927 3 15985111828944797767
19784866 240 17702387256406731054
19784866 34 16805037432607866209
19862831 5 18187644682720969313
20281475 54 17988645155589120019
20374829 77 18130497557451716651
20432913 95 14261630629545040631
20645477 70 16271915039024885393
20871999 31 18410854378297582643
21065199 12 9727633903581271406
2215653 11 17774992480597590093
23402539 116 18187359926858658432
23402655 69 18334018250769601980
23557571 272 18128802089215772288
23559900 14 18130496483556834216
23590187 173 14923936825865660759
2838139 119 17604437426619171428
3004659 81 18340765936476034174
3082319 5 18410295783166673546
328317 168 17095525136169727668
32948 21 18129938979901590321
42 15 11240001161139826957
465052 167 16702300200185389543
474 4 17240770635168358932
4921388 177 17676776452394005923
633830 44 17604149229464175881
67856867 119 18334285479682553560
7808743 9 12758307993840233542
94968 8 17704351087094612818
960060 61 18272081712688688095

>  <PUBCHEM_SHAPE_MULTIPOLES>
324.06
10.42
1.67
1.23
3.4
0.1
0.24
0.67
-4.87
-0.51
-0.27
-0.8
-0.09
-0.75

>  <PUBCHEM_SHAPE_SELFOVERLAP>
691.897

>  <PUBCHEM_SHAPE_VOLUME>
177.3

>  <PUBCHEM_COORDINATE_TYPE>
2
5
10

$$$$
