91664313
 OpenBabel01182520543D

 38 39  0  0  0  0  0  0  0  0999 V2000
    3.4204   -1.8510    0.2110 O   0  0  0  0  0  0  0  0  0  0  0  0
   -2.6086   -0.2538   -0.8053 N   0  0  0  0  0  0  0  0  0  0  0  0
   -0.4395    0.6645   -0.9932 N   0  0  0  0  0  0  0  0  0  0  0  0
    3.6726    0.3172   -0.5561 N   0  0  0  0  0  0  0  0  0  0  0  0
    5.2495    2.0020    0.1311 N   0  0  0  0  0  0  0  0  0  0  0  0
    4.5075    0.4360    1.6146 N   0  0  0  0  0  0  0  0  0  0  0  0
   -3.7199    0.3784    1.8079 C   0  0  0  0  0  0  0  0  0  0  0  0
   -4.4200    1.4123    0.9234 C   0  0  0  0  0  0  0  0  0  0  0  0
   -3.7023   -1.0587    1.2749 C   0  0  0  0  0  0  0  0  0  0  0  0
   -3.5259    1.9646   -0.1945 C   0  0  0  0  0  0  0  0  0  0  0  0
   -3.5434   -1.2279   -0.2354 C   0  0  0  0  0  0  0  0  0  0  0  0
   -3.2352    0.9696   -1.3168 C   0  0  0  0  0  0  0  0  0  0  0  0
   -1.2283   -0.3800   -0.6548 C   0  0  0  0  0  0  0  0  0  0  0  0
   -0.7516   -1.5841   -0.1618 C   0  0  0  0  0  0  0  0  0  0  0  0
    0.6230   -1.7251   -0.0062 C   0  0  0  0  0  0  0  0  0  0  0  0
    0.8909    0.4904   -0.8283 C   0  0  0  0  0  0  0  0  0  0  0  0
    1.4669   -0.6727   -0.3435 C   0  0  0  0  0  0  0  0  0  0  0  0
    2.9067   -0.7893   -0.1923 C   0  0  0  0  0  0  0  0  0  0  0  0
    4.4371    0.9075    0.3252 C   0  0  0  0  0  0  0  0  0  0  0  0
   -2.6908    0.7042    2.0055 H   0  0  0  0  0  0  0  0  0  0  0  0
   -4.2166    0.3608    2.7865 H   0  0  0  0  0  0  0  0  0  0  0  0
   -5.3527    1.0084    0.5134 H   0  0  0  0  0  0  0  0  0  0  0  0
   -4.7017    2.2598    1.5613 H   0  0  0  0  0  0  0  0  0  0  0  0
   -2.9079   -1.6036    1.7990 H   0  0  0  0  0  0  0  0  0  0  0  0
   -4.6363   -1.5546    1.5695 H   0  0  0  0  0  0  0  0  0  0  0  0
   -2.5848    2.3271    0.2371 H   0  0  0  0  0  0  0  0  0  0  0  0
   -4.0216    2.8387   -0.6343 H   0  0  0  0  0  0  0  0  0  0  0  0
   -3.2971   -2.2616   -0.5029 H   0  0  0  0  0  0  0  0  0  0  0  0
   -4.5334   -1.0841   -0.6897 H   0  0  0  0  0  0  0  0  0  0  0  0
   -4.1702    0.7245   -1.8365 H   0  0  0  0  0  0  0  0  0  0  0  0
   -2.6017    1.4432   -2.0769 H   0  0  0  0  0  0  0  0  0  0  0  0
   -1.3635   -2.4344    0.1081 H   0  0  0  0  0  0  0  0  0  0  0  0
    1.0146   -2.6630    0.3784 H   0  0  0  0  0  0  0  0  0  0  0  0
    1.4767    1.3580   -1.1147 H   0  0  0  0  0  0  0  0  0  0  0  0
    5.3069    2.4574   -0.7733 H   0  0  0  0  0  0  0  0  0  0  0  0
    5.8097    2.3865    0.8839 H   0  0  0  0  0  0  0  0  0  0  0  0
    5.1007    0.8884    2.3020 H   0  0  0  0  0  0  0  0  0  0  0  0
    3.9776   -0.3671    1.9339 H   0  0  0  0  0  0  0  0  0  0  0  0
  1 18  2  0  0  0  0
  2 11  1  0  0  0  0
  2 12  1  0  0  0  0
  2 13  1  0  0  0  0
  3 13  2  0  0  0  0
  3 16  1  0  0  0  0
  4 18  1  0  0  0  0
  4 19  2  0  0  0  0
  5 19  1  0  0  0  0
  5 35  1  0  0  0  0
  5 36  1  0  0  0  0
  6 19  1  0  0  0  0
  6 37  1  0  0  0  0
  6 38  1  0  0  0  0
  7  8  1  0  0  0  0
  7  9  1  0  0  0  0
  7 20  1  0  0  0  0
  7 21  1  0  0  0  0
  8 10  1  0  0  0  0
  8 22  1  0  0  0  0
  8 23  1  0  0  0  0
  9 11  1  0  0  0  0
  9 24  1  0  0  0  0
  9 25  1  0  0  0  0
 10 12  1  0  0  0  0
 10 26  1  0  0  0  0
 10 27  1  0  0  0  0
 11 28  1  0  0  0  0
 11 29  1  0  0  0  0
 12 30  1  0  0  0  0
 12 31  1  0  0  0  0
 13 14  1  0  0  0  0
 14 15  2  0  0  0  0
 14 32  1  0  0  0  0
 15 17  1  0  0  0  0
 15 33  1  0  0  0  0
 16 17  2  0  0  0  0
 16 34  1  0  0  0  0
 17 18  1  0  0  0  0
M  END
>  <PUBCHEM_COMPOUND_CID>
91664313

>  <PUBCHEM_CONFORMER_RMSD>
0.6

>  <PUBCHEM_CONFORMER_DIVERSEORDER>
1
54
61
101
30
171
137
16
197
198
50
168
36
169
114
149
68
127
178
9
167
64
66
199
23
147
55
52
128
160
15
19
90
188
62
48
13
183
102
195
125
134
57
5
120
193
20
18
187
194
25
44
121
192
99
148
92
179
82
12
131
200
108
46
166
181
69
97
186
72
129
3
26
152
111
100
81
140
201
170
185
6
96
27
60
115
116
51
190
107
184
172
132
196
153
189
174
98
126
161
14
180
31
42
136
56
144
38
146
7
139
164
191
8
122
151
83
17
138
176
105
89
67
22
2
159
118
37
143
87
94
41
43
63
162
40
11
109
4
58
154
110
86
79
45
49
175
182
34
95
104
133
47
65
141
117
157
113
119
93
80
85
130
70
71
10
145
39
163
156
202
84
32
158
173
155
112
33
78
150
24
77
88
74
28
142
103
73
53
35
124
135
75
76
91
21
29
59
177
123
106
165

>  <PUBCHEM_MMFF94_PARTIAL_CHARGES>
22
1 -0.57
11 0.37
12 0.37
13 0.41
14 -0.15
15 -0.15
16 0.16
17 0.09
18 0.69
19 0.55
2 -0.84
3 -0.62
32 0.15
33 0.15
34 0.15
35 0.4
36 0.4
37 0.4
38 0.4
4 -0.66
5 -0.85
6 -0.85

>  <PUBCHEM_EFFECTIVE_ROTOR_COUNT>
4.4

>  <PUBCHEM_PHARMACOPHORE_FEATURES>
7
1 1 acceptor
1 4 donor
1 5 donor
1 6 donor
3 2 3 13 cation
6 3 13 14 15 16 17 rings
7 2 7 8 9 10 11 12 rings

>  <PUBCHEM_HEAVY_ATOM_COUNT>
19

>  <PUBCHEM_ATOM_DEF_STEREO_COUNT>
0

>  <PUBCHEM_ATOM_UDEF_STEREO_COUNT>
0

>  <PUBCHEM_BOND_DEF_STEREO_COUNT>
0

>  <PUBCHEM_BOND_UDEF_STEREO_COUNT>
0

>  <PUBCHEM_ISOTOPIC_ATOM_COUNT>
0

>  <PUBCHEM_COMPONENT_COUNT>
1

>  <PUBCHEM_CACTVS_TAUTO_COUNT>
3

>  <PUBCHEM_CONFORMER_ID>
0576AFB900000001

>  <PUBCHEM_MMFF94_ENERGY>
68.7807

>  <PUBCHEM_FEATURE_SELFOVERLAP>
35.651

>  <PUBCHEM_SHAPE_FINGERPRINT>
10498660 4 15051727560551183459
11046707 91 11530480034275386437
11132069 177 18040434365244648359
11370993 144 18264775359153725137
11405975 8 18337388223770364810
11543360 7 15482378837584751196
12390115 104 18270695232689414164
12596602 18 17603866740770175928
12633257 1 17387159549261773473
12670546 177 11671778277950812888
12892183 10 18334021583537746667
13675066 3 18114748144020519782
13994607 96 17346888844961974929
14123260 362 16773800277313958449
1420 369 12829494744034232920
14848178 5 13190336902618252528
15209294 21 18341897393827432065
15239154 128 18202284701641072872
15788980 27 12396297058273890063
17349148 13 12324242741559928624
17870717 6 10303817587966553145
18186145 218 18201444649087933662
193927 3 11746940854123654976
19862831 5 12247683759681241006
200 152 18411132559535836431
20112054 13 18411424986008855147
20671657 53 10737580422666707543
20775530 9 13554619454692314913
20871999 31 12391509814974997090
21065199 12 18261118439298629307
21637258 2 14129640908136984609
22393880 68 11239716323409640253
22646028 1 11818990786161258316
22959321 60 18335423456351629962
23379529 103 8933556698129908969
23402539 116 8935010265100958454
23403322 49 8502654800910567401
23559900 14 17241329049868813670
23596394 208 11743841339677572956
27216 239 18409735037048465729
3286 77 13045944629238371294
32948 21 12607415372971794570
4259306 186 9079122154673865448
5104073 3 18333730191470877162
5281201 14 10951757590906903290
559249 180 10953721327559230377
633830 44 17845941731795449806
76465 3 10809337850087975976
90127 26 18340495477794636006
960060 61 11600007665491414504

>  <PUBCHEM_SHAPE_MULTIPOLES>
360.24
10.62
1.93
1.3
7.48
0.1
0.39
4.77
3.62
0.04
0.07
-0.91
0.22
0.34

>  <PUBCHEM_SHAPE_SELFOVERLAP>
750.299

>  <PUBCHEM_SHAPE_VOLUME>
200.3

>  <PUBCHEM_COORDINATE_TYPE>
2
5
10

$$$$
