91735308
 OpenBabel01182520543D

 27 27  0  0  0  0  0  0  0  0999 V2000
    6.0068    1.3548    1.0029 F   0  0  0  0  0  0  0  0  0  0  0  0
    5.7973   -0.7544    0.4969 F   0  0  0  0  0  0  0  0  0  0  0  0
    6.2085    0.7082   -1.0684 F   0  0  0  0  0  0  0  0  0  0  0  0
   -5.8267    1.2669    1.2365 F   0  0  0  0  0  0  0  0  0  0  0  0
   -5.7317    1.6399   -0.9085 F   0  0  0  0  0  0  0  0  0  0  0  0
   -4.0365    2.1518    0.3641 F   0  0  0  0  0  0  0  0  0  0  0  0
   -2.6464   -2.4041   -0.3741 O   0  0  0  0  0  0  0  0  0  0  0  0
    3.5846    1.7736   -0.5207 O   0  0  0  0  0  0  0  0  0  0  0  0
   -5.1409   -1.1274   -0.2603 O   0  0  0  0  0  0  0  0  0  0  0  0
    3.3122   -0.4655    0.1599 N   0  0  0  0  0  0  0  0  0  0  0  0
    1.4363   -1.8835    0.4136 N   0  0  0  0  0  0  0  0  0  0  0  0
   -3.0380   -0.1406    0.0058 N   0  0  0  0  0  0  0  0  0  0  0  0
   -0.7706   -1.0304   -0.0835 C   0  0  0  0  0  0  0  0  0  0  0  0
    1.9293   -0.6696    0.0806 C   0  0  0  0  0  0  0  0  0  0  0  0
   -0.2259    0.2045   -0.4178 C   0  0  0  0  0  0  0  0  0  0  0  0
    1.1490    0.3965   -0.3370 C   0  0  0  0  0  0  0  0  0  0  0  0
    0.0957   -2.0326    0.3226 C   0  0  0  0  0  0  0  0  0  0  0  0
   -2.2026   -1.2627   -0.1542 C   0  0  0  0  0  0  0  0  0  0  0  0
    4.0287    0.6978   -0.1338 C   0  0  0  0  0  0  0  0  0  0  0  0
   -4.4301   -0.1475   -0.0569 C   0  0  0  0  0  0  0  0  0  0  0  0
    5.5047    0.5020    0.0740 C   0  0  0  0  0  0  0  0  0  0  0  0
   -5.0038    1.2223    0.1582 C   0  0  0  0  0  0  0  0  0  0  0  0
   -0.8349    1.0307   -0.7728 H   0  0  0  0  0  0  0  0  0  0  0  0
    1.5000    1.3760   -0.6180 H   0  0  0  0  0  0  0  0  0  0  0  0
   -0.2635   -3.0185    0.6021 H   0  0  0  0  0  0  0  0  0  0  0  0
    3.8392   -1.2780    0.4712 H   0  0  0  0  0  0  0  0  0  0  0  0
   -2.6059    0.7542    0.2179 H   0  0  0  0  0  0  0  0  0  0  0  0
  1 21  1  0  0  0  0
  2 21  1  0  0  0  0
  3 21  1  0  0  0  0
  4 22  1  0  0  0  0
  5 22  1  0  0  0  0
  6 22  1  0  0  0  0
  7 18  2  0  0  0  0
  8 19  2  0  0  0  0
  9 20  2  0  0  0  0
 10 14  1  0  0  0  0
 10 19  1  0  0  0  0
 10 26  1  0  0  0  0
 11 14  2  0  0  0  0
 11 17  1  0  0  0  0
 12 18  1  0  0  0  0
 12 20  1  0  0  0  0
 12 27  1  0  0  0  0
 13 15  1  0  0  0  0
 13 17  2  0  0  0  0
 13 18  1  0  0  0  0
 14 16  1  0  0  0  0
 15 16  2  0  0  0  0
 15 23  1  0  0  0  0
 16 24  1  0  0  0  0
 17 25  1  0  0  0  0
 19 21  1  0  0  0  0
 20 22  1  0  0  0  0
M  END
>  <PUBCHEM_COMPOUND_CID>
91735308

>  <PUBCHEM_CONFORMER_RMSD>
0.8

>  <PUBCHEM_CONFORMER_DIVERSEORDER>
1
5
3
6
2
4

>  <PUBCHEM_MMFF94_PARTIAL_CHARGES>
27
1 -0.34
10 -0.55
11 -0.62
12 -0.49
13 0.09
14 0.43
15 -0.15
16 -0.15
17 0.16
18 0.54
19 0.57
2 -0.34
20 0.57
21 1.08
22 1.08
23 0.15
24 0.15
25 0.15
26 0.37
27 0.37
3 -0.34
4 -0.34
5 -0.34
6 -0.34
7 -0.57
8 -0.57
9 -0.57

>  <PUBCHEM_EFFECTIVE_ROTOR_COUNT>
7

>  <PUBCHEM_PHARMACOPHORE_FEATURES>
6
1 10 donor
1 12 donor
1 7 acceptor
1 8 acceptor
1 9 acceptor
6 11 13 14 15 16 17 rings

>  <PUBCHEM_HEAVY_ATOM_COUNT>
22

>  <PUBCHEM_ATOM_DEF_STEREO_COUNT>
0

>  <PUBCHEM_ATOM_UDEF_STEREO_COUNT>
0

>  <PUBCHEM_BOND_DEF_STEREO_COUNT>
0

>  <PUBCHEM_BOND_UDEF_STEREO_COUNT>
0

>  <PUBCHEM_ISOTOPIC_ATOM_COUNT>
0

>  <PUBCHEM_COMPONENT_COUNT>
1

>  <PUBCHEM_CACTVS_TAUTO_COUNT>
17

>  <PUBCHEM_CONFORMER_ID>
0577C50C00000001

>  <PUBCHEM_MMFF94_ENERGY>
50.0036

>  <PUBCHEM_FEATURE_SELFOVERLAP>
30.451

>  <PUBCHEM_SHAPE_FINGERPRINT>
10 15 17894638054229104457
11089746 13 18131343124632055244
117890 112 18342457054194607264
12236239 1 18260828206952193330
12596602 18 17240204318045194721
13167372 99 18410573968504630888
13177829 73 18411699885317003552
13740256 8 9295282846359557463
13785724 45 17832137230835636418
1420 363 11386365937358717416
14251764 18 18335139800196249203
14350574 20 11527941270886057783
14790565 3 18334580174152071172
15048467 5 18410855464665884648
15183329 4 18271810094751611660
15188451 53 15213598835883808817
15209294 21 18407758144468056150
15475509 8 18262535719036040412
15778101 99 18272094873064562313
15880784 105 12035739712346846285
1601671 61 18410291410932281036
16079462 125 17561073744364862464
18222031 100 11600004332396696230
19784866 170 18186803565037091311
20281389 69 18407757040677415280
20621476 66 18336271223283555892
21150785 3 16343694456868912477
23081809 10 18113895005266603182
23198884 109 16487258751302052873
23402539 116 18272083924433334710
23402655 69 18272931617791705519
23559900 14 18202568371805079174
25147074 1 18337370691582396339
2838139 119 18201995508492405057
2916195 48 18271802466757851424
293599 30 18412265034124842806
335352 9 18408885127450605638
34797466 226 17203053001268744332
351380 3 8718824280052277313
3545911 37 18342741831811517763
441001 317 18272371975363729945
465052 167 11241967067120144640
5104073 3 17968935439536742320
542803 24 17749390386256028238
54446538 1 18409728508144372293
59682541 35 18334585672553937155
59755656 215 18271532996768673302
59755656 520 17749389282223307842
7062679 6 18409172112247851628

>  <PUBCHEM_SHAPE_MULTIPOLES>
376.56
15.61
2.05
0.78
4.57
0.26
-0.03
-8.45
-0.89
-1.57
-0.08
0.03
-0.17
-0.56

>  <PUBCHEM_SHAPE_SELFOVERLAP>
797.939

>  <PUBCHEM_SHAPE_VOLUME>
208.9

>  <PUBCHEM_COORDINATE_TYPE>
2
5
10

$$$$
