91731899
 OpenBabel01182520543D

 29 29  0  0  0  0  0  0  0  0999 V2000
   -3.3359    0.1363    0.0008 Si  0  0  0  0  0  0  0  0  0  0  0  0
    4.0407    1.4197    0.0091 O   0  0  0  0  0  0  0  0  0  0  0  0
   -1.9176   -0.7848    0.0013 N   0  0  0  0  0  0  0  0  0  0  0  0
    0.3297   -1.5756    0.0026 N   0  0  0  0  0  0  0  0  0  0  0  0
    4.4311   -0.8400   -0.0010 N   0  0  0  0  0  0  0  0  0  0  0  0
   -3.3745    1.1776   -1.5391 C   0  0  0  0  0  0  0  0  0  0  0  0
   -3.3722    1.1834    1.5368 C   0  0  0  0  0  0  0  0  0  0  0  0
   -4.7709   -1.0576    0.0035 C   0  0  0  0  0  0  0  0  0  0  0  0
   -0.5244   -0.5276    0.0000 C   0  0  0  0  0  0  0  0  0  0  0  0
   -0.1243    0.7989   -0.0038 C   0  0  0  0  0  0  0  0  0  0  0  0
    1.2401    1.0672   -0.0052 C   0  0  0  0  0  0  0  0  0  0  0  0
    2.1497    0.0155   -0.0025 C   0  0  0  0  0  0  0  0  0  0  0  0
    1.6479   -1.2760    0.0012 C   0  0  0  0  0  0  0  0  0  0  0  0
    3.5808    0.2632   -0.0037 C   0  0  0  0  0  0  0  0  0  0  0  0
   -2.5775    1.9261   -1.5481 H   0  0  0  0  0  0  0  0  0  0  0  0
   -3.2635    0.5577   -2.4342 H   0  0  0  0  0  0  0  0  0  0  0  0
   -4.3272    1.7106   -1.6195 H   0  0  0  0  0  0  0  0  0  0  0  0
   -2.5747    1.9313    1.5420 H   0  0  0  0  0  0  0  0  0  0  0  0
   -4.3245    1.7172    1.6162 H   0  0  0  0  0  0  0  0  0  0  0  0
   -3.2607    0.5667    2.4341 H   0  0  0  0  0  0  0  0  0  0  0  0
   -4.7462   -1.7013   -0.8811 H   0  0  0  0  0  0  0  0  0  0  0  0
   -4.7452   -1.6984    0.8902 H   0  0  0  0  0  0  0  0  0  0  0  0
   -5.7234   -0.5191    0.0032 H   0  0  0  0  0  0  0  0  0  0  0  0
   -2.0697   -1.7921    0.0039 H   0  0  0  0  0  0  0  0  0  0  0  0
   -0.8049    1.6402   -0.0058 H   0  0  0  0  0  0  0  0  0  0  0  0
    1.5723    2.1018   -0.0083 H   0  0  0  0  0  0  0  0  0  0  0  0
    2.2641   -2.1661    0.0038 H   0  0  0  0  0  0  0  0  0  0  0  0
    4.1383   -1.8089   -0.0062 H   0  0  0  0  0  0  0  0  0  0  0  0
    5.4359   -0.6956    0.0050 H   0  0  0  0  0  0  0  0  0  0  0  0
  1  3  1  0  0  0  0
  1  6  1  0  0  0  0
  1  7  1  0  0  0  0
  1  8  1  0  0  0  0
  2 14  2  0  0  0  0
  3  9  1  0  0  0  0
  3 24  1  0  0  0  0
  4  9  2  0  0  0  0
  4 13  1  0  0  0  0
  5 14  1  0  0  0  0
  5 28  1  0  0  0  0
  5 29  1  0  0  0  0
  6 15  1  0  0  0  0
  6 16  1  0  0  0  0
  6 17  1  0  0  0  0
  7 18  1  0  0  0  0
  7 19  1  0  0  0  0
  7 20  1  0  0  0  0
  8 21  1  0  0  0  0
  8 22  1  0  0  0  0
  8 23  1  0  0  0  0
  9 10  1  0  0  0  0
 10 11  2  0  0  0  0
 10 25  1  0  0  0  0
 11 12  1  0  0  0  0
 11 26  1  0  0  0  0
 12 13  2  0  0  0  0
 12 14  1  0  0  0  0
 13 27  1  0  0  0  0
M  END
>  <PUBCHEM_COMPOUND_CID>
91731899

>  <PUBCHEM_CONFORMER_RMSD>
0.6

>  <PUBCHEM_CONFORMER_DIVERSEORDER>
1
3
5
8
2
7
6
4

>  <PUBCHEM_MMFF94_PARTIAL_CHARGES>
20
1 0.6
10 -0.15
11 -0.15
12 0.09
13 0.16
14 0.54
2 -0.57
24 0.4
25 0.15
26 0.15
27 0.15
28 0.37
29 0.37
3 -0.86
4 -0.62
5 -0.8
6 -0.08
7 -0.08
8 -0.08
9 0.41

>  <PUBCHEM_EFFECTIVE_ROTOR_COUNT>
3

>  <PUBCHEM_PHARMACOPHORE_FEATURES>
5
1 2 acceptor
1 3 donor
1 5 donor
3 3 4 9 cation
6 4 9 10 11 12 13 rings

>  <PUBCHEM_HEAVY_ATOM_COUNT>
14

>  <PUBCHEM_ATOM_DEF_STEREO_COUNT>
0

>  <PUBCHEM_ATOM_UDEF_STEREO_COUNT>
0

>  <PUBCHEM_BOND_DEF_STEREO_COUNT>
0

>  <PUBCHEM_BOND_UDEF_STEREO_COUNT>
0

>  <PUBCHEM_ISOTOPIC_ATOM_COUNT>
0

>  <PUBCHEM_COMPONENT_COUNT>
1

>  <PUBCHEM_CACTVS_TAUTO_COUNT>
7

>  <PUBCHEM_CONFORMER_ID>
0577B7BB00000001

>  <PUBCHEM_MMFF94_ENERGY>
32.8631

>  <PUBCHEM_FEATURE_SELFOVERLAP>
25.372

>  <PUBCHEM_SHAPE_FINGERPRINT>
10680689 15 17676491635684259913
11471102 20 18410571795119037428
11543360 7 15697991985518154552
11615757 297 18413106169379018985
124424 183 16805321098086397777
12500047 106 13262670465959161513
12670546 56 16515951619092770648
13081056 2 18334574659118488588
13675066 3 17894915126621457584
14144814 61 18341613689963128987
14289901 80 16732988638709890848
15196674 1 18410856555413595429
15219456 202 18114740430522928791
17802600 8 18334572477781562789
17834072 33 18272088335354243487
18186145 218 18411423895060833820
18522853 276 18272091617184037313
200 152 18272927254948691775
20279233 1 17240769471453637747
20645477 70 18271812298365753686
22854114 59 18334858341966793601
2306618 200 18336263458246584665
231179 274 18040709247240766164
23402539 116 17203607064597343416
23402655 69 18341322315472020581
23557571 272 17023464140686383591
4990 188 17917722283542348366
5104073 3 18411138026095170875
633830 44 18059586762568092948
90127 26 17530687593421894732

>  <PUBCHEM_SHAPE_MULTIPOLES>
285.51
9.02
1.5
0.98
2.01
0.06
0
-0.32
-0.01
-0.07
0
-1.22
-0.39
0

>  <PUBCHEM_SHAPE_SELFOVERLAP>
562.615

>  <PUBCHEM_SHAPE_VOLUME>
172.3

>  <PUBCHEM_COORDINATE_TYPE>
2
5
10

$$$$
