9500
 OpenBabel01182520543D

 17 17  0  0  0  0  0  0  0  0999 V2000
    2.7880   -1.0963   -0.0089 O   0  0  0  0  0  0  0  0  0  0  0  0
   -1.3865    1.2094   -0.0027 N   0  0  0  0  0  0  0  0  0  0  0  0
   -3.4626    0.0407   -0.0017 N   0  0  0  0  0  0  0  0  0  0  0  0
    2.7799    1.1969    0.0024 N   0  0  0  0  0  0  0  0  0  0  0  0
    0.6820   -0.0420    0.0021 C   0  0  0  0  0  0  0  0  0  0  0  0
   -0.0314   -1.2355    0.0039 C   0  0  0  0  0  0  0  0  0  0  0  0
   -1.4217   -1.2080    0.0025 C   0  0  0  0  0  0  0  0  0  0  0  0
   -2.0458    0.0291   -0.0007 C   0  0  0  0  0  0  0  0  0  0  0  0
   -0.0363    1.1429   -0.0011 C   0  0  0  0  0  0  0  0  0  0  0  0
    2.1343   -0.0373    0.0043 C   0  0  0  0  0  0  0  0  0  0  0  0
    0.4747   -2.1970    0.0066 H   0  0  0  0  0  0  0  0  0  0  0  0
   -1.9852   -2.1353    0.0033 H   0  0  0  0  0  0  0  0  0  0  0  0
    0.4161    2.1265   -0.0031 H   0  0  0  0  0  0  0  0  0  0  0  0
   -3.9145    0.9467    0.0022 H   0  0  0  0  0  0  0  0  0  0  0  0
   -3.9512   -0.7406    0.4180 H   0  0  0  0  0  0  0  0  0  0  0  0
    2.3233    2.1002    0.0078 H   0  0  0  0  0  0  0  0  0  0  0  0
    3.7946    1.2293   -0.0031 H   0  0  0  0  0  0  0  0  0  0  0  0
  1 10  2  0  0  0  0
  2  8  2  0  0  0  0
  2  9  1  0  0  0  0
  3  8  1  0  0  0  0
  3 14  1  0  0  0  0
  3 15  1  0  0  0  0
  4 10  1  0  0  0  0
  4 16  1  0  0  0  0
  4 17  1  0  0  0  0
  5  6  1  0  0  0  0
  5  9  2  0  0  0  0
  5 10  1  0  0  0  0
  6  7  2  0  0  0  0
  6 11  1  0  0  0  0
  7  8  1  0  0  0  0
  7 12  1  0  0  0  0
  9 13  1  0  0  0  0
M  END
>  <PUBCHEM_COMPOUND_CID>
9500

>  <PUBCHEM_CONFORMER_RMSD>
0.4

>  <PUBCHEM_CONFORMER_DIVERSEORDER>
1
2

>  <PUBCHEM_MMFF94_PARTIAL_CHARGES>
17
1 -0.57
10 0.54
11 0.15
12 0.15
13 0.15
14 0.4
15 0.4
16 0.37
17 0.37
2 -0.62
3 -0.9
4 -0.8
5 0.09
6 -0.15
7 -0.15
8 0.41
9 0.16

>  <PUBCHEM_EFFECTIVE_ROTOR_COUNT>
1

>  <PUBCHEM_PHARMACOPHORE_FEATURES>
5
1 1 acceptor
1 3 donor
1 4 donor
3 2 3 8 cation
6 2 5 6 7 8 9 rings

>  <PUBCHEM_HEAVY_ATOM_COUNT>
10

>  <PUBCHEM_ATOM_DEF_STEREO_COUNT>
0

>  <PUBCHEM_ATOM_UDEF_STEREO_COUNT>
0

>  <PUBCHEM_BOND_DEF_STEREO_COUNT>
0

>  <PUBCHEM_BOND_UDEF_STEREO_COUNT>
0

>  <PUBCHEM_ISOTOPIC_ATOM_COUNT>
0

>  <PUBCHEM_COMPONENT_COUNT>
1

>  <PUBCHEM_CACTVS_TAUTO_COUNT>
7

>  <PUBCHEM_CONFORMER_ID>
0000251C00000001

>  <PUBCHEM_MMFF94_ENERGY>
34.8522

>  <PUBCHEM_FEATURE_SELFOVERLAP>
25.371

>  <PUBCHEM_SHAPE_FINGERPRINT>
10219947 1 18410578383619948915
10857977 72 18337102483669135049
12032990 46 18409456881717789699
12897270 3 18410012126172483638
12932764 1 17312813870871945202
14325111 11 18410575084874172929
16945 1 18410573942233517635
193761 8 17545882625084573541
20871998 184 18057329585471534703
21040471 1 18410573955107798562
23235685 24 18410851070945930869
23402655 69 18195226842952511405
23552423 10 18260830423144839950
2748010 2 18266741466085005703
29004967 10 18114186379604549232
369184 2 18410854369211782378
5084963 1 18271804571196835354

>  <PUBCHEM_SHAPE_MULTIPOLES>
184.98
4.27
1.4
0.58
0
0.02
0
-0.18
0
-0.2
0
0.01
0.01
0

>  <PUBCHEM_SHAPE_SELFOVERLAP>
387.484

>  <PUBCHEM_SHAPE_VOLUME>
103.8

>  <PUBCHEM_COORDINATE_TYPE>
2
5
10

$$$$
