9942190
 OpenBabel01182520543D

 19 19  0  0  0  0  0  0  0  0999 V2000
   -2.8257    1.2994   -0.0098 O   0  0  0  0  0  0  0  0  0  0  0  0
    0.9734   -1.5831   -0.0022 N   0  0  0  0  0  0  0  0  0  0  0  0
    2.2473    1.8936    0.0018 N   0  0  0  0  0  0  0  0  0  0  0  0
    3.1927   -0.7517   -0.0028 N   0  0  0  0  0  0  0  0  0  0  0  0
   -3.1474   -0.9711    0.0030 N   0  0  0  0  0  0  0  0  0  0  0  0
   -0.8931   -0.0468    0.0023 C   0  0  0  0  0  0  0  0  0  0  0  0
    1.3565    0.8039    0.0016 C   0  0  0  0  0  0  0  0  0  0  0  0
   -0.0151    1.0315    0.0033 C   0  0  0  0  0  0  0  0  0  0  0  0
    1.7958   -0.5102   -0.0009 C   0  0  0  0  0  0  0  0  0  0  0  0
   -0.3532   -1.3228   -0.0006 C   0  0  0  0  0  0  0  0  0  0  0  0
   -2.3312    0.1574    0.0042 C   0  0  0  0  0  0  0  0  0  0  0  0
   -0.3909    2.0520    0.0056 H   0  0  0  0  0  0  0  0  0  0  0  0
   -0.9424   -2.2309   -0.0022 H   0  0  0  0  0  0  0  0  0  0  0  0
    3.2447    1.7421    0.0577 H   0  0  0  0  0  0  0  0  0  0  0  0
    1.8868    2.8386    0.0133 H   0  0  0  0  0  0  0  0  0  0  0  0
    3.7906   -0.0957   -0.4894 H   0  0  0  0  0  0  0  0  0  0  0  0
    3.4795   -1.7233    0.0053 H   0  0  0  0  0  0  0  0  0  0  0  0
   -2.8255   -1.9307    0.0091 H   0  0  0  0  0  0  0  0  0  0  0  0
   -4.1561   -0.8571   -0.0026 H   0  0  0  0  0  0  0  0  0  0  0  0
  1 11  2  0  0  0  0
  2  9  1  0  0  0  0
  2 10  2  0  0  0  0
  3  7  1  0  0  0  0
  3 14  1  0  0  0  0
  3 15  1  0  0  0  0
  4  9  1  0  0  0  0
  4 16  1  0  0  0  0
  4 17  1  0  0  0  0
  5 11  1  0  0  0  0
  5 18  1  0  0  0  0
  5 19  1  0  0  0  0
  6  8  2  0  0  0  0
  6 10  1  0  0  0  0
  6 11  1  0  0  0  0
  7  8  1  0  0  0  0
  7  9  2  0  0  0  0
  8 12  1  0  0  0  0
 10 13  1  0  0  0  0
M  END
>  <PUBCHEM_COMPOUND_CID>
9942190

>  <PUBCHEM_CONFORMER_RMSD>
0.4

>  <PUBCHEM_CONFORMER_DIVERSEORDER>
1
2

>  <PUBCHEM_MMFF94_PARTIAL_CHARGES>
19
1 -0.57
10 0.16
11 0.54
12 0.15
13 0.15
14 0.4
15 0.4
16 0.4
17 0.4
18 0.37
19 0.37
2 -0.62
3 -0.9
4 -0.9
5 -0.8
6 0.09
7 0.1
8 -0.15
9 0.41

>  <PUBCHEM_EFFECTIVE_ROTOR_COUNT>
1

>  <PUBCHEM_PHARMACOPHORE_FEATURES>
8
1 1 acceptor
1 2 acceptor
1 3 cation
1 3 donor
1 4 cation
1 4 donor
1 5 donor
6 2 6 7 8 9 10 rings

>  <PUBCHEM_HEAVY_ATOM_COUNT>
11

>  <PUBCHEM_ATOM_DEF_STEREO_COUNT>
0

>  <PUBCHEM_ATOM_UDEF_STEREO_COUNT>
0

>  <PUBCHEM_BOND_DEF_STEREO_COUNT>
0

>  <PUBCHEM_BOND_UDEF_STEREO_COUNT>
0

>  <PUBCHEM_ISOTOPIC_ATOM_COUNT>
0

>  <PUBCHEM_COMPONENT_COUNT>
1

>  <PUBCHEM_CACTVS_TAUTO_COUNT>
14

>  <PUBCHEM_CONFORMER_ID>
0097B4AE00000001

>  <PUBCHEM_MMFF94_ENERGY>
48.9095

>  <PUBCHEM_FEATURE_SELFOVERLAP>
40.602

>  <PUBCHEM_SHAPE_FINGERPRINT>
12032990 46 18340494357098711814
12897270 3 18409445882279820165
12932764 1 17530959155613709321
13380535 76 18194116541638341266
14325111 11 18410574015374692129
16945 1 18338798892603267843
193761 8 17906452486878764230
19973954 147 18410294700924845385
20201158 50 18337389336071708399
21040471 1 18266741466269602464
23402655 69 18124015859682382141
23552423 10 18407760330796235863
2748010 2 18337955696033776164
29004967 10 18337112258962050507
5084963 1 18272651255274529251
528886 8 18339355258509000579

>  <PUBCHEM_SHAPE_MULTIPOLES>
200.58
4.36
1.67
0.58
1.14
0.19
0
0.12
0
-0.44
0
0
0
0

>  <PUBCHEM_SHAPE_SELFOVERLAP>
422.177

>  <PUBCHEM_SHAPE_VOLUME>
112.1

>  <PUBCHEM_COORDINATE_TYPE>
2
5
10

$$$$
